Separated_merge_20260720.fds
Generated by PyroSim 2024.2.1120
2026年7月20日 20:51:34

-------------User Section (not generated by PyroSim)-------------

&RAMP ID='NUCLEAR_RAMP', T=0.000000, F=0.000000 /
&RAMP ID='NUCLEAR_RAMP', T=0.015484, F=0.026000 /
&RAMP ID='NUCLEAR_RAMP', T=0.030968, F=0.110000 /
&RAMP ID='NUCLEAR_RAMP', T=0.046452, F=0.230000 /
&RAMP ID='NUCLEAR_RAMP', T=0.061936, F=0.380000 /
&RAMP ID='NUCLEAR_RAMP', T=0.077420, F=0.565000 /
&RAMP ID='NUCLEAR_RAMP', T=0.092904, F=0.735000 /
&RAMP ID='NUCLEAR_RAMP', T=0.108389, F=0.855000 /
&RAMP ID='NUCLEAR_RAMP', T=0.123873, F=0.945000 /
&RAMP ID='NUCLEAR_RAMP', T=0.139357, F=0.980000 /
&RAMP ID='NUCLEAR_RAMP', T=0.154841, F=1.000000 /
&RAMP ID='NUCLEAR_RAMP', T=0.185809, F=0.935000 /
&RAMP ID='NUCLEAR_RAMP', T=0.216777, F=0.795000 /
&RAMP ID='NUCLEAR_RAMP', T=0.247745, F=0.630000 /
&RAMP ID='NUCLEAR_RAMP', T=0.278713, F=0.520000 /
&RAMP ID='NUCLEAR_RAMP', T=0.309682, F=0.430000 /
&RAMP ID='NUCLEAR_RAMP', T=0.340650, F=0.366000 /
&RAMP ID='NUCLEAR_RAMP', T=0.371618, F=0.320000 /
&RAMP ID='NUCLEAR_RAMP', T=0.402586, F=0.280000 /
&RAMP ID='NUCLEAR_RAMP', T=0.433554, F=0.245000 /
! ... 21 like lines cut

--------------------PyroSim-generated Section--------------------

&HEAD CHID='Separated_merge_20260720'/
&TIME T_END=100.0/
&DUMP DT_RESTART=300.0, DT_SL3D=0.25/

&MESH ID='Mesh01', IJK=85,36,48, XB=-0.3,8.2,-1.9,1.7,-2.2,2.6/
&MESH ID='Mesh02', IJK=36,72,96, XB=8.2,10.1,-1.9,1.7,-2.2,2.6/

&SPEC ID='SFPE POLYURETHANE_GM27_fuel', FORMULA='C1.0H1.7O0.3N0.08'/

&REAC ID='SFPE POLYURETHANE_GM27',
      FYI='SFPE Handbook, 5th Edition, Tables A.38 and A.39',
      FUEL='SFPE POLYURETHANE_GM27_fuel',
      CO_YIELD=0.042,
      SOOT_YIELD=0.198,
      HEAT_OF_COMBUSTION=1.64E+4,
      RADIATIVE_FRACTION=0.537/

&MATL ID='EBLXW',
      SPECIFIC_HEAT=1.0,
      CONDUCTIVITY=0.35,
      DENSITY=2540.0,
      HEAT_OF_COMBUSTION=9000.0,
      N_REACTIONS=1,
      A=1.0E+7,
      E=1.2E+5/
&MATL ID='BXSSL',
      SPECIFIC_HEAT=1.46,
      CONDUCTIVITY=0.19,
      DENSITY=1190.0,
      HEAT_OF_COMBUSTION=2.52E+4,
      N_REACTIONS=1,
      A=3.0E+12,
      E=1.6E+5/
&MATL ID='NLZW',
      SPECIFIC_HEAT=1.7,
      CONDUCTIVITY=0.25,
      DENSITY=1140.0,
      HEAT_OF_COMBUSTION=2.8E+4,
      N_REACTIONS=1,
      A=3.6E+9,
      E=1.65E+5/
&MATL ID='HYBLXW',
      SPECIFIC_HEAT=1.0,
      CONDUCTIVITY=0.35,
      DENSITY=2540.0,
      HEAT_OF_COMBUSTION=9000.0,
      N_REACTIONS=1,
      A=1.0E+7,
      E=1.2E+5/
&MATL ID='LHJ2024',
      SPECIFIC_HEAT=0.875,
      CONDUCTIVITY=121.1,
      DENSITY=2780.0/
&MATL ID='LHJ5052',
      SPECIFIC_HEAT=0.88,
      CONDUCTIVITY=138.0,
      DENSITY=2680.0/
&MATL ID='LHJ7075',
      SPECIFIC_HEAT=0.96,
      CONDUCTIVITY=130.0,
      DENSITY=2810.0,
      EMISSIVITY=0.1/
&MATL ID='LHJ6061',
      SPECIFIC_HEAT=896.0,
      CONDUCTIVITY=167.0,
      DENSITY=2700.0/
&MATL ID='PVCSL',
      SPECIFIC_HEAT=0.84,
      CONDUCTIVITY=0.19,
      DENSITY=1449.0,
      HEAT_OF_COMBUSTION=1.795E+4,
      N_REACTIONS=1,
      A=1.35E+14,
      E=2.19E+5/
&MATL ID='CRXJ',
      SPECIFIC_HEAT=1.12,
      CONDUCTIVITY=0.19,
      DENSITY=1500.0,
      HEAT_OF_COMBUSTION=2.952E+4,
      N_REACTIONS=1,
      A=2.0E+11,
      E=1.48E+5/

&SURF ID='E-玻璃纤维',
      RGB=153,153,153,
      TRANSPARENCY=0.729412,
      MATL_ID(1,1)='EBLXW',
      MATL_MASS_FRACTION(1,1)=1.0,
      THICKNESS(1)=0.1,
      EXTERNAL_FLUX=1000,
      RAMP_EF='NUCLEAR_RAMP'/
&SURF ID='丙烯酸塑料',
      RGB=146,202,166,
      MATL_ID(1,1)='BXSSL',
      MATL_MASS_FRACTION(1,1)=1.0,
      THICKNESS(1)=0.025,
      EXTERNAL_FLUX=1000,
      RAMP_EF='NUCLEAR_RAMP'/
&SURF ID='尼龙织物_床垫',
      RGB=146,26,223,
      TRANSPARENCY=0.886275,
      MATL_ID(1,1)='NLZW',
      MATL_MASS_FRACTION(1,1)=1.0,
      THICKNESS(1)=0.1,
      EXTERNAL_FLUX=1000,
      RAMP_EF='NUCLEAR_RAMP'/
&SURF ID='尼龙织物_窗帘3mm',
      RGB=146,26,223,
      TRANSPARENCY=0.886275,
      MATL_ID(1,1)='NLZW',
      MATL_MASS_FRACTION(1,1)=1.0,
      THICKNESS(1)=3.0E-3,
      EXTERNAL_FLUX=1000,
      RAMP_EF='NUCLEAR_RAMP'/
&SURF ID='环氧玻璃纤维',
      RGB=255,153,153,
      TRANSPARENCY=0.866667,
      MATL_ID(1,1)='HYBLXW',
      MATL_MASS_FRACTION(1,1)=1.0,
      THICKNESS(1)=6.0E-3,
      EXTERNAL_FLUX=1000,
      RAMP_EF='NUCLEAR_RAMP'/
&SURF ID='聚氨酯泡沫',
      RGB=146,234,117,
      TRANSPARENCY=0.827451,
      HRRPUA=1000.0,
      TMP_FRONT=20.0,
      EXTERNAL_FLUX=1000,
      RAMP_EF='NUCLEAR_RAMP'/
&SURF ID='铝合金2024',
      RGB=153,153,153,
      TRANSPARENCY=0.54902,
      MATL_ID(1,1)='LHJ2024',
      MATL_MASS_FRACTION(1,1)=1.0,
      THICKNESS(1)=0.1/
&SURF ID='铝合金5052',
      RGB=255,255,51,
      TRANSPARENCY=0.827451,
      MATL_ID(1,1)='LHJ5052',
      MATL_MASS_FRACTION(1,1)=1.0,
      THICKNESS(1)=1.5E-3/
&SURF ID='铝合金7075',
      RGB=153,153,0,
      TRANSPARENCY=0.819608,
      MATL_ID(1,1)='LHJ7075',
      MATL_MASS_FRACTION(1,1)=1.0,
      THICKNESS(1)=0.1/
&SURF ID='铝合金7075_氧气瓶',
      RGB=0,255,153,
      MATL_ID(1,1)='LHJ7075',
      MATL_MASS_FRACTION(1,1)=1.0,
      THICKNESS(1)=5.0E-3/
&SURF ID='导航子系统',
      RGB=204,255,51,
      MATL_ID(1,1)='LHJ6061',
      MATL_MASS_FRACTION(1,1)=1.0,
      THICKNESS(1)=3.0E-3/
&SURF ID='任务子系统',
      RGB=204,255,51,
      MATL_ID(1,1)='LHJ6061',
      MATL_MASS_FRACTION(1,1)=1.0,
      THICKNESS(1)=3.0E-3/
&SURF ID='显示子系统',
      RGB=204,255,51,
      MATL_ID(1,1)='LHJ6061',
      MATL_MASS_FRACTION(1,1)=1.0,
      THICKNESS(1)=3.0E-3/
&SURF ID='通信子系统',
      RGB=204,255,51,
      MATL_ID(1,1)='LHJ6061',
      MATL_MASS_FRACTION(1,1)=1.0,
      THICKNESS(1)=3.0E-3/
&SURF ID='电池',
      RGB=204,255,51,
      MATL_ID(1,1)='LHJ6061',
      MATL_MASS_FRACTION(1,1)=1.0,
      THICKNESS(1)=3.0E-3/
&SURF ID='电力传输子系统',
      RGB=204,255,51,
      HRRPUA=200.0,
      IGNITION_TEMPERATURE=468.6,
      MATL_ID(1,1)='PVCSL',
      MATL_MASS_FRACTION(1,1)=1.0,
      THICKNESS(1)=1.0E-3/
&SURF ID='操纵子系统',
      RGB=204,255,51,
      HRRPUA=180.0,
      IGNITION_TEMPERATURE=410.0,
      MATL_ID(1,1)='CRXJ',
      MATL_MASS_FRACTION(1,1)=1.0,
      THICKNESS(1)=2.0E-3/

&OBST ID='A01.stl', XB=2.775558E-17,0.1,-0.1,0.1,-0.2,-0.2, SURF_ID='E-玻璃纤维'/ 
&OBST ID='A01.stl', XB=2.775558E-17,0.1,-0.1,0.1,0.2,0.2, SURF_ID='E-玻璃纤维'/ 
&OBST ID='A01.stl', XB=0.1,0.2,-0.1,0.1,-0.3,-0.3, SURF_ID='E-玻璃纤维'/ 
&OBST ID='A01.stl', XB=0.1,0.2,-0.2,-0.1,-0.2,-0.2, SURF_ID='E-玻璃纤维'/ 
&OBST ID='A01.stl', XB=0.1,0.2,0.1,0.2,-0.2,-0.2, SURF_ID='E-玻璃纤维'/ 
&OBST ID='A01.stl', XB=0.1,0.2,-0.2,-0.1,0.2,0.2, SURF_ID='E-玻璃纤维'/ 
&OBST ID='A01.stl', XB=0.1,0.2,0.1,0.2,0.2,0.2, SURF_ID='E-玻璃纤维'/ 
&OBST ID='A01.stl', XB=0.1,0.2,-0.1,0.1,0.3,0.3, SURF_ID='E-玻璃纤维'/ 
&OBST ID='A01.stl', XB=0.2,0.3,-0.2,-0.1,-0.3,-0.3, SURF_ID='E-玻璃纤维'/ 
&OBST ID='A01.stl', XB=0.2,0.3,0.1,0.2,-0.3,-0.3, SURF_ID='E-玻璃纤维'/ 
&OBST ID='A01.stl', XB=0.2,0.3,-0.3,-0.2,-0.2,-0.2, SURF_ID='E-玻璃纤维'/ 
&OBST ID='A01.stl', XB=0.2,0.3,0.2,0.3,-0.2,-0.2, SURF_ID='E-玻璃纤维'/ 
&OBST ID='A01.stl', XB=0.2,0.3,-0.3,-0.2,0.2,0.2, SURF_ID='E-玻璃纤维'/ 
&OBST ID='A01.stl', XB=0.2,0.3,0.2,0.3,0.2,0.2, SURF_ID='E-玻璃纤维'/ 
&OBST ID='A01.stl', XB=0.2,0.3,-0.2,-0.1,0.3,0.3, SURF_ID='E-玻璃纤维'/ 
&OBST ID='A01.stl', XB=0.2,0.3,0.1,0.2,0.3,0.3, SURF_ID='E-玻璃纤维'/ 
&OBST ID='A01.stl', XB=0.2,0.4,-0.1,0.1,-0.4,-0.4, SURF_ID='E-玻璃纤维'/ 
&OBST ID='A01.stl', XB=0.2,0.4,-0.1,0.1,0.4,0.4, SURF_ID='E-玻璃纤维'/ 
&OBST ID='A01.stl', XB=0.3,0.4,-0.2,-0.1,-0.4,-0.4, SURF_ID='E-玻璃纤维'/ 
&OBST ID='A01.stl', XB=0.3,0.4,0.1,0.2,-0.4,-0.4, SURF_ID='E-玻璃纤维'/ 
! ... 557 like lines cut
&OBST ID='A02.stl', XB=1.4,1.5,-0.3,-0.2,-0.9,-0.9, SURF_ID='铝合金2024'/ 
&OBST ID='A02.stl', XB=1.4,1.5,0.2,0.3,-0.9,-0.9, SURF_ID='铝合金2024'/ 
&OBST ID='A02.stl', XB=1.4,1.5,-0.5,-0.4,-0.8,-0.8, SURF_ID='铝合金2024'/ 
&OBST ID='A02.stl', XB=1.4,1.5,0.4,0.5,-0.8,-0.8, SURF_ID='铝合金2024'/ 
&OBST ID='A02.stl', XB=1.4,1.5,-0.6,-0.5,-0.7,-0.7, SURF_ID='铝合金2024'/ 
&OBST ID='A02.stl', XB=1.4,1.5,0.5,0.6,-0.7,-0.7, SURF_ID='铝合金2024'/ 
&OBST ID='A02.stl', XB=1.4,1.5,-0.7,-0.6,-0.6,-0.6, SURF_ID='铝合金2024'/ 
&OBST ID='A02.stl', XB=1.4,1.5,0.6,0.7,-0.6,-0.6, SURF_ID='铝合金2024'/ 
&OBST ID='A02.stl', XB=1.4,1.5,-0.9,-0.8,-0.3,-0.3, SURF_ID='铝合金2024'/ 
&OBST ID='A02.stl', XB=1.4,1.5,0.8,0.9,-0.3,-0.3, SURF_ID='铝合金2024'/ 
&OBST ID='A02.stl', XB=1.4,1.5,-0.9,-0.8,0.5,0.5, SURF_ID='铝合金2024'/ 
&OBST ID='A02.stl', XB=1.4,1.5,0.8,0.9,0.5,0.5, SURF_ID='铝合金2024'/ 
&OBST ID='A02.stl', XB=1.4,1.5,-0.6,-0.5,0.8,0.8, SURF_ID='铝合金2024'/ 
&OBST ID='A02.stl', XB=1.4,1.5,0.5,0.6,0.8,0.8, SURF_ID='铝合金2024'/ 
&OBST ID='A02.stl', XB=1.4,1.5,-0.5,-0.3,0.9,0.9, SURF_ID='铝合金2024'/ 
&OBST ID='A02.stl', XB=1.4,1.5,0.3,0.5,0.9,0.9, SURF_ID='铝合金2024'/ 
&OBST ID='A02.stl', XB=1.4,1.6,-0.1,0.1,-1.0,-1.0, SURF_ID='铝合金2024'/ 
&OBST ID='A02.stl', XB=1.4,1.6,-0.4,-0.3,-0.9,-0.9, SURF_ID='铝合金2024'/ 
&OBST ID='A02.stl', XB=1.4,1.6,0.3,0.4,-0.9,-0.9, SURF_ID='铝合金2024'/ 
&OBST ID='A02.stl', XB=1.4,1.6,-0.8,-0.7,-0.5,-0.5, SURF_ID='铝合金2024'/ 
! ... 2290 like lines cut
&OBST ID='A03.stl', XB=1.7,1.8,-0.4,-0.3,1.1,1.1, SURF_ID='丙烯酸塑料'/ 
&OBST ID='A03.stl', XB=1.7,1.8,0.3,0.4,1.1,1.1, SURF_ID='丙烯酸塑料'/ 
&OBST ID='A03.stl', XB=1.7,1.9,-0.3,0.3,1.2,1.2, SURF_ID='丙烯酸塑料'/ 
&OBST ID='A03.stl', XB=1.8,1.9,-0.4,-0.3,1.2,1.2, SURF_ID='丙烯酸塑料'/ 
&OBST ID='A03.stl', XB=1.8,1.9,0.3,0.4,1.2,1.2, SURF_ID='丙烯酸塑料'/ 
&OBST ID='A03.stl', XB=1.9,2.0,-0.3,0.3,1.3,1.3, SURF_ID='丙烯酸塑料'/ 
&OBST ID='A03.stl', XB=1.9,2.1,-0.5,-0.4,1.2,1.2, SURF_ID='丙烯酸塑料'/ 
&OBST ID='A03.stl', XB=1.9,2.1,0.4,0.5,1.2,1.2, SURF_ID='丙烯酸塑料'/ 
&OBST ID='A03.stl', XB=1.9,2.1,-0.4,-0.3,1.3,1.3, SURF_ID='丙烯酸塑料'/ 
&OBST ID='A03.stl', XB=1.9,2.1,0.3,0.4,1.3,1.3, SURF_ID='丙烯酸塑料'/ 
&OBST ID='A03.stl', XB=2.0,2.1,-0.2,0.2,1.4,1.4, SURF_ID='丙烯酸塑料'/ 
&OBST ID='A03.stl', XB=2.0,2.2,-0.6,-0.5,1.2,1.2, SURF_ID='丙烯酸塑料'/ 
&OBST ID='A03.stl', XB=2.0,2.2,0.5,0.6,1.2,1.2, SURF_ID='丙烯酸塑料'/ 
&OBST ID='A03.stl', XB=2.1,2.2,-0.7,-0.6,1.1,1.1, SURF_ID='丙烯酸塑料'/ 
&OBST ID='A03.stl', XB=2.1,2.2,0.6,0.7,1.1,1.1, SURF_ID='丙烯酸塑料'/ 
&OBST ID='A03.stl', XB=2.1,2.2,-0.5,-0.4,1.3,1.3, SURF_ID='丙烯酸塑料'/ 
&OBST ID='A03.stl', XB=2.1,2.2,0.4,0.5,1.3,1.3, SURF_ID='丙烯酸塑料'/ 
&OBST ID='A03.stl', XB=2.1,2.2,-0.4,-0.3,1.4,1.4, SURF_ID='丙烯酸塑料'/ 
&OBST ID='A03.stl', XB=2.1,2.2,0.3,0.4,1.4,1.4, SURF_ID='丙烯酸塑料'/ 
&OBST ID='A03.stl', XB=2.1,2.2,-0.2,0.2,1.5,1.5, SURF_ID='丙烯酸塑料'/ 
! ... 327 like lines cut
&OBST ID='C01.stl', XB=1.6,3.8,-1.0,1.0,8.604228E-16,8.604228E-16, SURF_ID='铝合金7075'/ 
&OBST ID='C01.stl', XB=1.6,6.3,-0.3,0.3,0.1,0.1, SURF_ID='铝合金7075'/ 
&OBST ID='C01.stl', XB=1.6,8.2,-1.0,-0.3,0.1,0.1, SURF_ID='铝合金7075'/ 
&OBST ID='C01.stl', XB=1.6,8.2,0.3,1.0,0.1,0.1, SURF_ID='铝合金7075'/ 
&OBST ID='C01.stl', XB=1.8,3.8,-1.1,-1.0,8.604228E-16,8.604228E-16, SURF_ID='铝合金7075'/ 
&OBST ID='C01.stl', XB=1.8,3.8,1.0,1.1,8.604228E-16,8.604228E-16, SURF_ID='铝合金7075'/ 
&OBST ID='C01.stl', XB=1.8,8.2,-1.1,-1.0,0.1,0.1, SURF_ID='铝合金7075'/ 
&OBST ID='C01.stl', XB=1.8,8.2,1.0,1.1,0.1,0.1, SURF_ID='铝合金7075'/ 
&OBST ID='C01.stl', XB=2.1,8.2,-1.2,-1.1,0.1,0.1, SURF_ID='铝合金7075'/ 
&OBST ID='C01.stl', XB=2.1,8.2,1.1,1.2,0.1,0.1, SURF_ID='铝合金7075'/ 
&OBST ID='C01.stl', XB=2.2,3.8,-1.2,-1.1,8.604228E-16,8.604228E-16, SURF_ID='铝合金7075'/ 
&OBST ID='C01.stl', XB=2.2,3.8,1.1,1.2,8.604228E-16,8.604228E-16, SURF_ID='铝合金7075'/ 
&OBST ID='C01.stl', XB=2.5,8.2,-1.3,-1.2,0.1,0.1, SURF_ID='铝合金7075'/ 
&OBST ID='C01.stl', XB=2.5,8.2,1.2,1.3,0.1,0.1, SURF_ID='铝合金7075'/ 
&OBST ID='C01.stl', XB=2.6,3.8,-1.3,-1.2,8.604228E-16,8.604228E-16, SURF_ID='铝合金7075'/ 
&OBST ID='C01.stl', XB=2.6,3.8,1.2,1.3,8.604228E-16,8.604228E-16, SURF_ID='铝合金7075'/ 
&OBST ID='C01.stl', XB=3.0,3.8,-1.4,-1.3,8.604228E-16,8.604228E-16, SURF_ID='铝合金7075'/ 
&OBST ID='C01.stl', XB=3.0,3.8,1.3,1.4,8.604228E-16,8.604228E-16, SURF_ID='铝合金7075'/ 
&OBST ID='C01.stl', XB=3.0,8.2,-1.4,-1.3,0.1,0.1, SURF_ID='铝合金7075'/ 
&OBST ID='C01.stl', XB=3.0,8.2,1.3,1.4,0.1,0.1, SURF_ID='铝合金7075'/ 
! ... 10 like lines cut
&OBST ID='C01.stl', XB=3.8,3.9,-1.5,-1.4,-0.4,-0.4/ 
&OBST ID='C01.stl', XB=3.8,3.9,1.4,1.5,-0.4,-0.4/ 
&OBST ID='C01.stl', XB=3.8,8.2,-0.9,0.9,-1.4,-1.4, SURF_ID='铝合金7075'/ 
&OBST ID='C01.stl', XB=3.9,4.0,-1.5,-1.4,-0.5,-0.5/ 
&OBST ID='C01.stl', XB=3.9,4.0,1.4,1.5,-0.5,-0.5/ 
&OBST ID='C01.stl', XB=3.9,4.4,-1.1,-1.0,-1.3,-1.3, SURF_ID='铝合金7075'/ 
&OBST ID='C01.stl', XB=3.9,4.4,1.0,1.1,-1.3,-1.3, SURF_ID='铝合金7075'/ 
&OBST ID='C01.stl', XB=3.9,4.4,-1.2,-1.1,-1.2,-1.2, SURF_ID='铝合金7075'/ 
&OBST ID='C01.stl', XB=3.9,4.4,1.1,1.2,-1.2,-1.2, SURF_ID='铝合金7075'/ 
&OBST ID='C01.stl', XB=3.9,8.2,-1.0,-0.9,-1.4,-1.4, SURF_ID='铝合金7075'/ 
&OBST ID='C01.stl', XB=3.9,8.2,0.9,1.0,-1.4,-1.4, SURF_ID='铝合金7075'/ 
&OBST ID='C01.stl', XB=4.4,4.9,-1.2,-1.1,-1.3,-1.3, SURF_ID='铝合金7075'/ 
&OBST ID='C01.stl', XB=4.4,4.9,1.1,1.2,-1.3,-1.3, SURF_ID='铝合金7075'/ 
&OBST ID='C01.stl', XB=4.4,8.2,-1.1,-1.0,-1.4,-1.4, SURF_ID='铝合金7075'/ 
&OBST ID='C01.stl', XB=4.4,8.2,1.0,1.1,-1.4,-1.4, SURF_ID='铝合金7075'/ 
&OBST ID='C01.stl', XB=4.9,8.2,-1.2,-1.1,-1.4,-1.4, SURF_ID='铝合金7075'/ 
&OBST ID='C01.stl', XB=4.9,8.2,1.1,1.2,-1.4,-1.4, SURF_ID='铝合金7075'/ 
&OBST ID='C01.stl', XB=5.5,8.2,-1.3,-1.2,-1.4,-1.4, SURF_ID='铝合金7075'/ 
&OBST ID='C01.stl', XB=5.5,8.2,1.2,1.3,-1.4,-1.4, SURF_ID='铝合金7075'/ 
&OBST ID='C01.stl', XB=6.3,8.2,-1.4,-1.3,-1.4,-1.4, SURF_ID='铝合金7075'/ 
&OBST ID='C01.stl', XB=6.3,8.2,1.3,1.4,-1.4,-1.4, SURF_ID='铝合金7075'/ 
&OBST ID='C01.stl', XB=6.9,8.2,-0.3,0.3,0.1,0.1, SURF_ID='铝合金7075'/ 
&OBST ID='C01.stl', XB=3.8,3.9,-0.9,-0.9,-1.4,-1.3, SURF_ID='铝合金7075'/ 
&OBST ID='C01.stl', XB=3.8,3.9,0.9,0.9,-1.4,-1.3, SURF_ID='铝合金7075'/ 
&OBST ID='C01.stl', XB=3.8,3.9,-1.0,-1.0,-1.3,-1.2, SURF_ID='铝合金7075'/ 
! ... 5 like lines cut
&OBST ID='C01.stl', XB=3.8,3.9,-1.4,-1.4,-0.6,-0.4/ 
&OBST ID='C01.stl', XB=3.8,3.9,1.4,1.4,-0.6,-0.4/ 
&OBST ID='C01.stl', XB=3.9,4.0,-1.2,-1.2,-1.2,-1.0, SURF_ID='铝合金7075'/ 
&OBST ID='C01.stl', XB=3.9,4.0,1.2,1.2,-1.2,-1.0, SURF_ID='铝合金7075'/ 
&OBST ID='C01.stl', XB=3.9,4.4,-1.0,-1.0,-1.4,-1.3, SURF_ID='铝合金7075'/ 
&OBST ID='C01.stl', XB=3.9,4.4,1.0,1.0,-1.4,-1.3, SURF_ID='铝合金7075'/ 
&OBST ID='C01.stl', XB=3.9,4.4,-1.1,-1.1,-1.3,-1.2, SURF_ID='铝合金7075'/ 
&OBST ID='C01.stl', XB=3.9,4.4,1.1,1.1,-1.3,-1.2, SURF_ID='铝合金7075'/ 
&OBST ID='C01.stl', XB=4.0,4.4,-1.2,-1.2,-1.2,-1.1, SURF_ID='铝合金7075'/ 
&OBST ID='C01.stl', XB=4.0,4.4,1.2,1.2,-1.2,-1.1, SURF_ID='铝合金7075'/ 
&OBST ID='C01.stl', XB=4.4,4.5,-1.2,-1.2,-1.3,-1.1, SURF_ID='铝合金7075'/ 
&OBST ID='C01.stl', XB=4.4,4.5,1.2,1.2,-1.3,-1.1, SURF_ID='铝合金7075'/ 
&OBST ID='C01.stl', XB=4.4,4.9,-1.1,-1.1,-1.4,-1.3, SURF_ID='铝合金7075'/ 
&OBST ID='C01.stl', XB=4.4,4.9,1.1,1.1,-1.4,-1.3, SURF_ID='铝合金7075'/ 
&OBST ID='C01.stl', XB=4.5,4.9,-1.2,-1.2,-1.3,-1.2, SURF_ID='铝合金7075'/ 
&OBST ID='C01.stl', XB=4.5,4.9,1.2,1.2,-1.3,-1.2, SURF_ID='铝合金7075'/ 
&OBST ID='C01.stl', XB=4.9,5.2,-1.2,-1.2,-1.4,-1.3, SURF_ID='铝合金7075'/ 
&OBST ID='C01.stl', XB=4.9,5.2,1.2,1.2,-1.4,-1.3, SURF_ID='铝合金7075'/ 
&OBST ID='C01.stl', XB=1.6,1.6,-1.0,-0.9,8.604228E-16,0.4, SURF_ID='铝合金7075'/ 
&OBST ID='C01.stl', XB=1.6,1.6,0.9,1.0,8.604228E-16,0.4, SURF_ID='铝合金7075'/ 
&OBST ID='C01.stl', XB=1.6,1.6,-0.9,-0.8,8.604228E-16,0.6, SURF_ID='铝合金7075'/ 
&OBST ID='C01.stl', XB=1.6,1.6,0.8,0.9,8.604228E-16,0.6, SURF_ID='铝合金7075'/ 
! ... 32 like lines cut
&OBST ID='C01.stl', XB=3.9,3.9,-1.5,-1.4,-0.5,-0.4/ 
&OBST ID='C01.stl', XB=3.9,3.9,1.4,1.5,-0.5,-0.4/ 
&OBST ID='C01.stl', XB=4.4,4.4,-1.1,-1.0,-1.4,-1.3, SURF_ID='铝合金7075'/ 
&OBST ID='C01.stl', XB=4.4,4.4,1.0,1.1,-1.4,-1.3, SURF_ID='铝合金7075'/ 
&OBST ID='C01.stl', XB=4.4,4.4,-1.2,-1.1,-1.3,-1.2, SURF_ID='铝合金7075'/ 
&OBST ID='C01.stl', XB=4.4,4.4,1.1,1.2,-1.3,-1.2, SURF_ID='铝合金7075'/ 
&OBST ID='C01.stl', XB=4.9,4.9,-1.2,-1.1,-1.4,-1.3, SURF_ID='铝合金7075'/ 
&OBST ID='C01.stl', XB=4.9,4.9,1.1,1.2,-1.4,-1.3, SURF_ID='铝合金7075'/ 
&OBST ID='C01.stl', XB=8.2,8.886111,-1.4,1.4,-1.35,-1.35, SURF_ID='铝合金7075'/ 
&OBST ID='C01.stl', XB=8.2,9.15,-1.5,1.5,0.15,0.15, SURF_ID='铝合金7075'/ 
&OBST ID='C01.stl', XB=8.886111,8.886111,-0.75,0.75,-1.85,0.15, SURF_ID='铝合金7075'/ 
&OBST ID='C01.stl', XB=8.886111,8.886111,-0.9,-0.75,-1.8,0.15, SURF_ID='铝合金7075'/ 
&OBST ID='C01.stl', XB=8.886111,8.886111,0.75,0.9,-1.8,0.15, SURF_ID='铝合金7075'/ 
&OBST ID='C01.stl', XB=8.886111,8.886111,-1.0,-0.9,-1.75,0.15, SURF_ID='铝合金7075'/ 
&OBST ID='C01.stl', XB=8.886111,8.886111,0.9,1.0,-1.75,0.15, SURF_ID='铝合金7075'/ 
&OBST ID='C01.stl', XB=8.886111,8.886111,-1.05,-1.0,-1.7,0.15, SURF_ID='铝合金7075'/ 
&OBST ID='C01.stl', XB=8.886111,8.886111,1.0,1.05,-1.7,0.15, SURF_ID='铝合金7075'/ 
&OBST ID='C01.stl', XB=8.886111,8.886111,-1.15,-1.05,-1.65,-0.1, SURF_ID='铝合金7075'/ 
&OBST ID='C01.stl', XB=8.886111,8.886111,1.05,1.15,-1.65,0.15, SURF_ID='铝合金7075'/ 
&OBST ID='C01.stl', XB=8.886111,8.886111,-1.2,-1.15,-1.6,0.15, SURF_ID='铝合金7075'/ 
&OBST ID='C01.stl', XB=8.886111,8.886111,1.15,1.2,-1.6,0.15, SURF_ID='铝合金7075'/ 
&OBST ID='C01.stl', XB=8.886111,8.886111,-1.25,-1.2,-1.55,0.15, SURF_ID='铝合金7075'/ 
! ... 78 like lines cut
&OBST ID='U01.stl', XB=2.0,2.1,-0.3,-0.2,1.0,1.0, SURF_ID='尼龙织物_窗帘3mm'/ 
&OBST ID='U01.stl', XB=2.0,2.1,0.2,0.3,1.0,1.0, SURF_ID='尼龙织物_窗帘3mm'/ 
&OBST ID='U01.stl', XB=2.0,2.1,-0.1,0.1,1.1,1.1, SURF_ID='尼龙织物_窗帘3mm'/ 
&OBST ID='U01.stl', XB=2.0,2.2,-0.2,-0.1,1.1,1.1, SURF_ID='尼龙织物_窗帘3mm'/ 
&OBST ID='U01.stl', XB=2.0,2.2,0.1,0.2,1.1,1.1, SURF_ID='尼龙织物_窗帘3mm'/ 
&OBST ID='U01.stl', XB=2.1,2.2,-0.4,-0.3,1.0,1.0, SURF_ID='尼龙织物_窗帘3mm'/ 
&OBST ID='U01.stl', XB=2.1,2.2,0.3,0.4,1.0,1.0, SURF_ID='尼龙织物_窗帘3mm'/ 
&OBST ID='U01.stl', XB=2.1,2.2,-0.3,-0.2,1.1,1.1, SURF_ID='尼龙织物_窗帘3mm'/ 
&OBST ID='U01.stl', XB=2.1,2.2,0.2,0.3,1.1,1.1, SURF_ID='尼龙织物_窗帘3mm'/ 
&OBST ID='U01.stl', XB=2.1,2.2,-0.1,0.1,1.2,1.2, SURF_ID='尼龙织物_窗帘3mm'/ 
&OBST ID='U01.stl', XB=2.2,2.3,-0.5,-0.4,1.0,1.0, SURF_ID='尼龙织物_窗帘3mm'/ 
&OBST ID='U01.stl', XB=2.2,2.3,0.4,0.5,1.0,1.0, SURF_ID='尼龙织物_窗帘3mm'/ 
&OBST ID='U01.stl', XB=2.2,2.3,-0.4,-0.3,1.1,1.1, SURF_ID='尼龙织物_窗帘3mm'/ 
&OBST ID='U01.stl', XB=2.2,2.3,0.3,0.4,1.1,1.1, SURF_ID='尼龙织物_窗帘3mm'/ 
&OBST ID='U01.stl', XB=2.2,2.3,-0.3,-0.1,1.2,1.2, SURF_ID='尼龙织物_窗帘3mm'/ 
&OBST ID='U01.stl', XB=2.2,2.3,0.1,0.3,1.2,1.2, SURF_ID='尼龙织物_窗帘3mm'/ 
&OBST ID='U01.stl', XB=2.2,2.3,-0.1,0.1,1.3,1.3, SURF_ID='尼龙织物_窗帘3mm'/ 
&OBST ID='U01.stl', XB=2.3,2.4,-0.6,-0.5,1.0,1.0, SURF_ID='尼龙织物_窗帘3mm'/ 
&OBST ID='U01.stl', XB=2.3,2.4,0.5,0.6,1.0,1.0, SURF_ID='尼龙织物_窗帘3mm'/ 
&OBST ID='U01.stl', XB=2.3,2.4,-0.5,-0.4,1.1,1.1, SURF_ID='尼龙织物_窗帘3mm'/ 
! ... 367 like lines cut
&OBST ID='U03.stl', XB=3.5,3.6,-1.0,-0.9,0.1,0.5, SURF_ID='铝合金7075_氧气瓶'/ 
&OBST ID='U03.stl', XB=3.5,3.6,0.9,1.0,0.1,0.5, SURF_ID='铝合金7075_氧气瓶'/ 
&OBST ID='U03.stl', XB=5.9,6.1,-1.1,-1.0,-1.4,-1.0, SURF_ID='铝合金7075_氧气瓶'/ 
&OBST ID='U03.stl', XB=5.9,6.1,1.0,1.1,-1.4,-1.0, SURF_ID='铝合金7075_氧气瓶'/ 
&OBST ID='U03.stl', XB=7.7,7.8,-1.0,-0.9,0.1,0.5, SURF_ID='铝合金7075_氧气瓶'/ 
&OBST ID='U03.stl', XB=7.7,7.8,0.9,1.0,0.1,0.5, SURF_ID='铝合金7075_氧气瓶'/ 
&OBST ID='U05.stl', XB=5.0,7.0,-1.3,-0.7,0.5,0.7, SURF_ID='尼龙织物_床垫'/ 
&OBST ID='U06.stl', XB=3.3,3.8,-0.9,-0.4,0.4,0.4, SURF_ID='聚氨酯泡沫'/ 
&OBST ID='U06.stl', XB=3.3,3.8,-0.9,-0.4,0.5,0.5, SURF_ID='聚氨酯泡沫'/ 
&OBST ID='U06.stl', XB=3.8,4.0,-0.9,-0.4,1.3,1.3, SURF_ID='聚氨酯泡沫'/ 
&OBST ID='U06.stl', XB=3.8,4.0,-0.9,-0.4,1.5,1.5, SURF_ID='聚氨酯泡沫'/ 
&OBST ID='U06.stl', XB=3.3,3.8,-0.9,-0.9,0.4,0.5, SURF_ID='聚氨酯泡沫'/ 
&OBST ID='U06.stl', XB=3.3,3.8,-0.4,-0.4,0.4,0.5, SURF_ID='聚氨酯泡沫'/ 
&OBST ID='U06.stl', XB=3.8,4.0,-0.9,-0.9,1.3,1.5, SURF_ID='聚氨酯泡沫'/ 
&OBST ID='U06.stl', XB=3.8,4.0,-0.4,-0.4,1.3,1.5, SURF_ID='聚氨酯泡沫'/ 
&OBST ID='U06.stl', XB=3.3,3.3,-0.9,-0.4,0.4,0.5, SURF_ID='聚氨酯泡沫'/ 
&OBST ID='U06.stl', XB=3.8,3.8,-0.9,-0.4,0.4,1.5, SURF_ID='聚氨酯泡沫'/ 
&OBST ID='U06.stl', XB=4.0,4.0,-0.9,-0.4,1.3,1.5, SURF_ID='聚氨酯泡沫'/ 
&OBST ID='U06.stl', XB=3.3,3.8,0.3,0.8,0.4,0.4, SURF_ID='聚氨酯泡沫'/ 
&OBST ID='U06.stl', XB=3.3,3.8,0.3,0.8,0.5,0.5, SURF_ID='聚氨酯泡沫'/ 
&OBST ID='U06.stl', XB=3.8,4.0,0.3,0.8,1.3,1.3, SURF_ID='聚氨酯泡沫'/ 
&OBST ID='U06.stl', XB=3.8,4.0,0.3,0.8,1.5,1.5, SURF_ID='聚氨酯泡沫'/ 
&OBST ID='U06.stl', XB=3.3,3.8,0.3,0.3,0.4,0.5, SURF_ID='聚氨酯泡沫'/ 
&OBST ID='U06.stl', XB=3.3,3.8,0.8,0.8,0.4,0.5, SURF_ID='聚氨酯泡沫'/ 
&OBST ID='U06.stl', XB=3.8,4.0,0.3,0.3,1.3,1.5, SURF_ID='聚氨酯泡沫'/ 
&OBST ID='U06.stl', XB=3.8,4.0,0.8,0.8,1.3,1.5, SURF_ID='聚氨酯泡沫'/ 
&OBST ID='U06.stl', XB=3.3,3.3,0.3,0.8,0.4,0.5, SURF_ID='聚氨酯泡沫'/ 
! ... 52 like lines cut
&OBST ID='U4.stl', XB=1.9,2.0,-0.3,0.3,0.8,1.1/ 
&OBST ID='U4.stl', XB=2.0,2.1,-0.4,-0.4,0.8,1.1/ 
&OBST ID='U4.stl', XB=2.0,2.1,0.4,0.4,0.8,1.1/ 
&OBST ID='U4.stl', XB=2.1,2.2,-0.6,-0.6,0.1,0.8/ 
&OBST ID='U4.stl', XB=2.1,2.2,0.6,0.6,0.1,0.8/ 
&OBST ID='U4.stl', XB=2.2,2.5,-0.7,-0.7,0.1,0.8/ 
&OBST ID='U4.stl', XB=2.2,2.5,0.7,0.7,0.1,0.8/ 
&OBST ID='U4.stl', XB=2.5,2.9,-0.8,-0.8,0.1,0.8/ 
&OBST ID='U4.stl', XB=2.5,2.9,0.8,0.8,0.1,0.8/ 
&OBST ID='U4.stl', XB=2.9,3.2,-0.9,-0.9,0.1,0.8/ 
&OBST ID='U4.stl', XB=2.9,3.2,0.9,0.9,0.1,0.8/ 
&OBST ID='U4.stl', XB=3.2,3.3,-1.0,-1.0,0.1,0.8/ 
&OBST ID='U4.stl', XB=3.2,3.3,1.0,1.0,0.1,0.8/ 
&OBST ID='U4.stl', XB=2.0,2.0,-0.4,-0.3,0.8,1.1/ 
&OBST ID='U4.stl', XB=2.0,2.0,0.3,0.4,0.8,1.1/ 
&OBST ID='U4.stl', XB=2.1,2.1,-0.6,0.6,0.1,0.8/ 
&OBST ID='U4.stl', XB=2.2,2.2,-0.7,-0.6,0.1,0.8/ 
&OBST ID='U4.stl', XB=2.2,2.2,0.6,0.7,0.1,0.8/ 
&OBST ID='U4.stl', XB=2.5,2.5,-0.8,-0.7,0.1,0.8/ 
&OBST ID='U4.stl', XB=2.5,2.5,0.7,0.8,0.1,0.8/ 
! ... 4 like lines cut
&OBST ID='U4.stl', XB=8.411111,8.516667,1.15,1.15,0.4,1.5, SURF_ID='环氧玻璃纤维'/ 
&OBST ID='U4.stl', XB=8.516667,8.622222,1.1,1.1,0.4,1.5, SURF_ID='环氧玻璃纤维'/ 
&OBST ID='U4.stl', XB=8.622222,8.727778,1.05,1.05,0.4,1.5, SURF_ID='环氧玻璃纤维'/ 
&OBST ID='U4.stl', XB=8.727778,8.833333,1.0,1.0,0.4,1.5, SURF_ID='环氧玻璃纤维'/ 
&OBST ID='U4.stl', XB=8.833333,8.938889,0.95,0.95,0.4,1.5, SURF_ID='环氧玻璃纤维'/ 
&OBST ID='U4.stl', XB=8.411111,8.411111,1.15,1.2,0.4,1.5, SURF_ID='环氧玻璃纤维'/ 
&OBST ID='U4.stl', XB=8.516667,8.516667,1.1,1.15,0.4,1.5, SURF_ID='环氧玻璃纤维'/ 
&OBST ID='U4.stl', XB=8.622222,8.622222,1.05,1.1,0.4,1.5, SURF_ID='环氧玻璃纤维'/ 
&OBST ID='U4.stl', XB=8.727778,8.727778,1.0,1.05,0.4,1.5, SURF_ID='环氧玻璃纤维'/ 
&OBST ID='U4.stl', XB=8.833333,8.833333,0.95,1.0,0.4,1.5, SURF_ID='环氧玻璃纤维'/ 
&OBST ID='U4.stl', XB=8.938889,8.938889,-0.95,0.95,0.4,1.5, SURF_ID='环氧玻璃纤维'/ 
&OBST ID='U4.stl', XB=5.2,5.3,-0.9,-0.8,-0.8,0.1/ 
&OBST ID='U4.stl', XB=5.2,5.3,0.8,0.9,-0.8,0.1/ 
&OBST ID='U4.stl', XB=5.0,5.2,-0.8,-0.8,-0.8,0.1/ 
&OBST ID='U4.stl', XB=5.0,5.2,0.8,0.8,-0.8,0.1/ 
&OBST ID='U4.stl', XB=5.3,5.5,-0.9,-0.9,-0.8,0.1/ 
&OBST ID='U4.stl', XB=5.3,5.5,0.9,0.9,-0.8,0.1/ 
&OBST ID='U4.stl', XB=5.5,5.8,-1.0,-1.0,-0.8,0.1/ 
&OBST ID='U4.stl', XB=5.5,5.8,1.0,1.0,-0.8,0.1/ 
&OBST ID='U4.stl', XB=5.0,5.0,-0.8,0.8,-0.8,0.1/ 
&OBST ID='U4.stl', XB=5.5,5.5,-1.0,-0.9,-0.8,0.1/ 
&OBST ID='U4.stl', XB=5.5,5.5,0.9,1.0,-0.8,0.1/ 
&OBST ID='H1.stl', XB=0.6,0.7,-0.3,0.2,0.4,0.5, SURF_ID='导航子系统'/ 
&OBST ID='H1.stl', XB=0.7,0.9,-0.3,0.2,0.4,0.6, SURF_ID='导航子系统'/ 
&OBST ID='H1.stl', XB=0.9,1.0,-0.3,0.2,0.5,0.6, SURF_ID='导航子系统'/ 
&OBST ID='H1.stl', XB=7.5,8.2,-0.9,0.9,-1.3,-1.0, SURF_ID='导航子系统'/ 
&OBST ID='H1.stl', XB=8.2,8.675,-0.9,0.9,-1.35,-1.05, SURF_ID='导航子系统'/ 
&OBST ID='H2.stl', XB=2.3,2.9,-1.0,-0.9,-0.6,-0.4, SURF_ID='任务子系统'/ 
&OBST ID='H2.stl', XB=2.4,2.6,-0.9,-0.8,-0.6,-0.4, SURF_ID='任务子系统'/ 
&OBST ID='H2.stl', XB=2.4,3.2,-1.1,-1.0,-0.6,-0.4, SURF_ID='任务子系统'/ 
&OBST ID='H2.stl', XB=2.7,3.5,-1.2,-1.1,-0.6,-0.4, SURF_ID='任务子系统'/ 
&OBST ID='H2.stl', XB=3.0,3.6,-1.3,-1.2,-0.6,-0.4, SURF_ID='任务子系统'/ 
&OBST ID='H2.stl', XB=3.3,3.5,-1.4,-1.3,-0.6,-0.4, SURF_ID='任务子系统'/ 
&OBST ID='H2.stl', XB=2.3,2.9,0.9,1.0,-0.6,-0.4, SURF_ID='任务子系统'/ 
&OBST ID='H2.stl', XB=2.4,2.6,0.8,0.9,-0.6,-0.4, SURF_ID='任务子系统'/ 
&OBST ID='H2.stl', XB=2.4,3.2,1.0,1.1,-0.6,-0.4, SURF_ID='任务子系统'/ 
&OBST ID='H2.stl', XB=2.7,3.5,1.1,1.2,-0.6,-0.4, SURF_ID='任务子系统'/ 
&OBST ID='H2.stl', XB=3.0,3.6,1.2,1.3,-0.6,-0.4, SURF_ID='任务子系统'/ 
&OBST ID='H2.stl', XB=3.3,3.5,1.3,1.4,-0.6,-0.4, SURF_ID='任务子系统'/ 
&OBST ID='H2.stl', XB=0.6,1.0,-0.5,0.4,-0.3,0.3, SURF_ID='任务子系统'/ 
&OBST ID='H2.stl', XB=0.9,1.1,-0.6,-0.5,-0.3,8.604228E-16, SURF_ID='任务子系统'/ 
&OBST ID='H2.stl', XB=1.0,1.1,-0.3,0.3,-0.3,0.4, SURF_ID='任务子系统'/ 
&OBST ID='H2.stl', XB=1.0,1.4,-0.5,-0.3,-0.3,0.4, SURF_ID='任务子系统'/ 
&OBST ID='H2.stl', XB=1.0,1.4,0.3,0.4,-0.3,0.4, SURF_ID='任务子系统'/ 
&OBST ID='H2.stl', XB=1.1,1.3,-0.3,0.3,-0.3,0.7, SURF_ID='任务子系统'/ 
&OBST ID='H2.stl', XB=1.3,1.4,-0.3,0.3,-0.3,0.4, SURF_ID='任务子系统'/ 
&OBST ID='H2.stl', XB=1.2,1.4,-0.7,-0.6,-0.3,8.604228E-16, SURF_ID='任务子系统'/ 
! ... 7 like lines cut
&OBST ID='H3.stl', XB=1.8,2.1,-0.6,0.6,0.1,0.1, SURF_ID='显示子系统'/ 
&OBST ID='H3.stl', XB=1.8,2.1,-0.6,0.6,0.8,0.8, SURF_ID='显示子系统'/ 
&OBST ID='H3.stl', XB=1.8,2.2,-0.7,-0.6,0.1,0.1, SURF_ID='显示子系统'/ 
&OBST ID='H3.stl', XB=1.8,2.2,0.6,0.7,0.1,0.1, SURF_ID='显示子系统'/ 
&OBST ID='H3.stl', XB=1.8,2.2,-0.7,-0.6,0.8,0.8, SURF_ID='显示子系统'/ 
&OBST ID='H3.stl', XB=1.8,2.2,0.6,0.7,0.8,0.8, SURF_ID='显示子系统'/ 
&OBST ID='H3.stl', XB=1.8,2.5,-0.8,-0.7,0.1,0.1, SURF_ID='显示子系统'/ 
&OBST ID='H3.stl', XB=1.8,2.5,0.7,0.8,0.1,0.1, SURF_ID='显示子系统'/ 
&OBST ID='H3.stl', XB=1.8,2.5,-0.8,-0.7,0.8,0.8, SURF_ID='显示子系统'/ 
&OBST ID='H3.stl', XB=1.8,2.5,0.7,0.8,0.8,0.8, SURF_ID='显示子系统'/ 
&OBST ID='H3.stl', XB=2.0,2.9,-0.9,-0.8,0.1,0.1, SURF_ID='显示子系统'/ 
&OBST ID='H3.stl', XB=2.0,2.9,0.8,0.9,0.1,0.1, SURF_ID='显示子系统'/ 
&OBST ID='H3.stl', XB=2.0,2.9,-0.9,-0.8,0.8,0.8, SURF_ID='显示子系统'/ 
&OBST ID='H3.stl', XB=2.0,2.9,0.8,0.9,0.8,0.8, SURF_ID='显示子系统'/ 
&OBST ID='H3.stl', XB=2.3,3.2,-1.0,-0.9,0.1,0.1, SURF_ID='显示子系统'/ 
&OBST ID='H3.stl', XB=2.3,3.2,0.9,1.0,0.1,0.1, SURF_ID='显示子系统'/ 
&OBST ID='H3.stl', XB=2.3,3.2,-1.0,-0.9,0.8,0.8, SURF_ID='显示子系统'/ 
&OBST ID='H3.stl', XB=2.3,3.2,0.9,1.0,0.8,0.8, SURF_ID='显示子系统'/ 
&OBST ID='H3.stl', XB=2.7,3.3,-1.1,-1.0,0.1,0.1, SURF_ID='显示子系统'/ 
&OBST ID='H3.stl', XB=2.7,3.3,1.0,1.1,0.1,0.1, SURF_ID='显示子系统'/ 
! ... 131 like lines cut
&OBST ID='H4.stl', XB=1.9,2.0,-0.4,-0.3,0.8,1.1, SURF_ID='通信子系统'/ 
&OBST ID='H4.stl', XB=1.9,2.0,0.3,0.4,0.8,1.1, SURF_ID='通信子系统'/ 
&OBST ID='H4.stl', XB=2.0,2.1,-0.5,-0.4,0.8,1.1, SURF_ID='通信子系统'/ 
&OBST ID='H4.stl', XB=2.0,2.1,0.4,0.5,0.8,1.1, SURF_ID='通信子系统'/ 
&OBST ID='H4.stl', XB=1.9,1.9,-0.3,0.3,0.8,1.1, SURF_ID='通信子系统'/ 
&OBST ID='H5.stl', XB=7.4,8.0,-0.5,0.5,-0.9,-0.3, SURF_ID='电池'/ 
&OBST ID='H5.stl', XB=8.0,8.2,-0.1,0.1,-0.6,-0.5, SURF_ID='电池'/ 
&OBST ID='H5.stl', XB=8.2,8.2,-0.1,0.1,-0.9,-0.6, SURF_ID='电池'/ 
&OBST ID='H5.stl', XB=8.2,8.2,-0.5,-0.1,-0.9,-0.3, SURF_ID='电池'/ 
&OBST ID='H5.stl', XB=8.2,8.2,0.1,0.5,-0.9,-0.3, SURF_ID='电池'/ 
&OBST ID='H5.stl', XB=8.2,8.2,-0.1,0.1,-0.5,-0.3, SURF_ID='电池'/ 
&OBST ID='H5.stl', XB=8.2,8.780556,-0.5,0.5,-0.85,-0.25, SURF_ID='电池'/ 
&OBST ID='H6.stl', XB=7.6,7.8,5.828671E-16,5.828671E-16,-0.1,8.604228E-16, SURF_ID='电力传输子系统'/ 
&OBST ID='H6.stl', XB=8.252778,8.358333,-0.05,0.05,-0.15,-0.1, SURF_ID='电力传输子系统'/ 
&OBST ID='H6.stl', XB=8.358333,8.411111,-0.05,0.05,-0.2,-0.15, SURF_ID='电力传输子系统'/ 
&OBST ID='H6.stl', XB=8.2,8.252778,-0.05,0.05,-0.1,-0.1, SURF_ID='电力传输子系统'/ 
&OBST ID='H6.stl', XB=8.411111,8.463889,-0.05,0.05,-0.2,-0.2, SURF_ID='电力传输子系统'/ 
&OBST ID='H6.stl', XB=8.463889,8.516667,-0.05,0.05,-0.25,-0.25, SURF_ID='电力传输子系统'/ 
&OBST ID='H6.stl', XB=8.2,8.252778,1.179612E-15,1.179612E-15,-0.15,-0.05, SURF_ID='电力传输子系统'/ 
&OBST ID='H6.stl', XB=8.411111,8.463889,1.179612E-15,1.179612E-15,-0.25,-0.15, SURF_ID='电力传输子系统'/ 
&OBST ID='H6.stl', XB=8.463889,8.516667,1.179612E-15,1.179612E-15,-0.25,-0.2, SURF_ID='电力传输子系统'/ 
&OBST ID='H6.stl', XB=8.463889,8.463889,-0.05,0.05,-0.25,-0.2, SURF_ID='电力传输子系统'/ 
&OBST ID='H7.stl', XB=3.2,3.3,-0.2,-0.1,0.6,0.7, SURF_ID='操纵子系统'/ 
&OBST ID='H7.stl', XB=3.2,3.3,-0.2,-0.2,0.2,0.6, SURF_ID='操纵子系统'/ 
&OBST ID='H7.stl', XB=2.3,2.6,-0.6,0.6,0.2,0.4, SURF_ID='操纵子系统'/ 

&VENT ID='Mesh Vent: Mesh01 [ZMAX]', SURF_ID='OPEN', XB=-0.3,8.2,-1.9,1.7,2.6,2.6/ 
&VENT ID='Mesh Vent: Mesh02 [ZMAX]', SURF_ID='OPEN', XB=8.2,10.1,-1.9,1.7,2.6,2.6/ 


&TAIL /
