Separated_merge_20260720.fds
Generated by PyroSim 2024.2.1120
2026年7月20日 20:51:34

-------------User Section (not generated by PyroSim)-------------

&RAMP ID='NUCLEAR_RAMP', T=0.000000, F=0.000000 /
&RAMP ID='NUCLEAR_RAMP', T=0.030343, F=0.026000 /
&RAMP ID='NUCLEAR_RAMP', T=0.060686, F=0.110000 /
&RAMP ID='NUCLEAR_RAMP', T=0.091028, F=0.230000 /
&RAMP ID='NUCLEAR_RAMP', T=0.121371, F=0.380000 /
&RAMP ID='NUCLEAR_RAMP', T=0.151715, F=0.565000 /
&RAMP ID='NUCLEAR_RAMP', T=0.182057, F=0.735000 /
&RAMP ID='NUCLEAR_RAMP', T=0.212403, F=0.855000 /
&RAMP ID='NUCLEAR_RAMP', T=0.242745, F=0.945000 /
&RAMP ID='NUCLEAR_RAMP', T=0.273088, F=0.980000 /
&RAMP ID='NUCLEAR_RAMP', T=0.303431, F=1.000000 /
&RAMP ID='NUCLEAR_RAMP', T=0.364116, F=0.935000 /
&RAMP ID='NUCLEAR_RAMP', T=0.424802, F=0.795000 /
&RAMP ID='NUCLEAR_RAMP', T=0.485488, F=0.630000 /
&RAMP ID='NUCLEAR_RAMP', T=0.546174, F=0.520000 /
&RAMP ID='NUCLEAR_RAMP', T=0.606861, F=0.430000 /
&RAMP ID='NUCLEAR_RAMP', T=0.667547, F=0.366000 /
&RAMP ID='NUCLEAR_RAMP', T=0.728233, F=0.320000 /
&RAMP ID='NUCLEAR_RAMP', T=0.788918, F=0.280000 /
&RAMP ID='NUCLEAR_RAMP', T=0.849604, F=0.245000 /
! ... 21 like lines cut
&RAMP ID='Q_RAMP', T=0.0, F=0.0 /
&RAMP ID='Q_RAMP', T=3.0, F=1.0 /


--------------------PyroSim-generated Section--------------------

&HEAD CHID='Q0400_W0100_az270_el15_H1H7_v2'/
&TIME T_END=1500.0/
&DUMP DT_RESTART=300.0, DT_SL3D=0.25/

&MESH ID='Mesh01_0_0_0', IJK=85,9,10, XB=-0.300000,8.200000,-1.900000,-1.000000,-2.200000,-1.200000, MPI_PROCESS=0 /
&MESH ID='Mesh01_0_0_1', IJK=85,9,10, XB=-0.300000,8.200000,-1.900000,-1.000000,-1.200000,-0.200000, MPI_PROCESS=1 /
&MESH ID='Mesh01_0_0_2', IJK=85,9,10, XB=-0.300000,8.200000,-1.900000,-1.000000,-0.200000,0.800000, MPI_PROCESS=2 /
&MESH ID='Mesh01_0_0_3', IJK=85,9,9, XB=-0.300000,8.200000,-1.900000,-1.000000,0.800000,1.700000, MPI_PROCESS=3 /
&MESH ID='Mesh01_0_0_4', IJK=85,9,9, XB=-0.300000,8.200000,-1.900000,-1.000000,1.700000,2.600000, MPI_PROCESS=4 /
&MESH ID='Mesh01_0_1_0', IJK=85,9,10, XB=-0.300000,8.200000,-1.000000,-0.100000,-2.200000,-1.200000, MPI_PROCESS=5 /
&MESH ID='Mesh01_0_1_1', IJK=85,9,10, XB=-0.300000,8.200000,-1.000000,-0.100000,-1.200000,-0.200000, MPI_PROCESS=6 /
&MESH ID='Mesh01_0_1_2', IJK=85,9,10, XB=-0.300000,8.200000,-1.000000,-0.100000,-0.200000,0.800000, MPI_PROCESS=7 /
&MESH ID='Mesh01_0_1_3', IJK=85,9,9, XB=-0.300000,8.200000,-1.000000,-0.100000,0.800000,1.700000, MPI_PROCESS=8 /
&MESH ID='Mesh01_0_1_4', IJK=85,9,9, XB=-0.300000,8.200000,-1.000000,-0.100000,1.700000,2.600000, MPI_PROCESS=9 /
&MESH ID='Mesh01_0_2_0', IJK=85,9,10, XB=-0.300000,8.200000,-0.100000,0.800000,-2.200000,-1.200000, MPI_PROCESS=10 /
&MESH ID='Mesh01_0_2_1', IJK=85,9,10, XB=-0.300000,8.200000,-0.100000,0.800000,-1.200000,-0.200000, MPI_PROCESS=11 /
&MESH ID='Mesh01_0_2_2', IJK=85,9,10, XB=-0.300000,8.200000,-0.100000,0.800000,-0.200000,0.800000, MPI_PROCESS=12 /
&MESH ID='Mesh01_0_2_3', IJK=85,9,9, XB=-0.300000,8.200000,-0.100000,0.800000,0.800000,1.700000, MPI_PROCESS=13 /
&MESH ID='Mesh01_0_2_4', IJK=85,9,9, XB=-0.300000,8.200000,-0.100000,0.800000,1.700000,2.600000, MPI_PROCESS=14 /
&MESH ID='Mesh01_0_3_0', IJK=85,9,10, XB=-0.300000,8.200000,0.800000,1.700000,-2.200000,-1.200000, MPI_PROCESS=15 /
&MESH ID='Mesh01_0_3_1', IJK=85,9,10, XB=-0.300000,8.200000,0.800000,1.700000,-1.200000,-0.200000, MPI_PROCESS=16 /
&MESH ID='Mesh01_0_3_2', IJK=85,9,10, XB=-0.300000,8.200000,0.800000,1.700000,-0.200000,0.800000, MPI_PROCESS=17 /
&MESH ID='Mesh01_0_3_3', IJK=85,9,9, XB=-0.300000,8.200000,0.800000,1.700000,0.800000,1.700000, MPI_PROCESS=18 /
&MESH ID='Mesh01_0_3_4', IJK=85,9,9, XB=-0.300000,8.200000,0.800000,1.700000,1.700000,2.600000, MPI_PROCESS=19 /
&MESH ID='Mesh02_1_0', IJK=36,18,32, XB=8.200000,10.100000,-1.900000,-1.000000,-2.200000,-0.600000, MPI_PROCESS=20 /
&MESH ID='Mesh02_1_1', IJK=36,18,32, XB=8.200000,10.100000,-1.000000,-0.100000,-2.200000,-0.600000, MPI_PROCESS=21 /
&MESH ID='Mesh02_1_2', IJK=36,18,32, XB=8.200000,10.100000,-0.100000,0.800000,-2.200000,-0.600000, MPI_PROCESS=22 /
&MESH ID='Mesh02_1_3', IJK=36,18,32, XB=8.200000,10.100000,0.800000,1.700000,-2.200000,-0.600000, MPI_PROCESS=23 /
&MESH ID='Mesh02_2_0', IJK=36,18,32, XB=8.200000,10.100000,-1.900000,-1.000000,-0.600000,1.000000, MPI_PROCESS=24 /
&MESH ID='Mesh02_2_1', IJK=36,18,32, XB=8.200000,10.100000,-1.000000,-0.100000,-0.600000,1.000000, MPI_PROCESS=25 /
&MESH ID='Mesh02_2_2', IJK=36,18,32, XB=8.200000,10.100000,-0.100000,0.800000,-0.600000,1.000000, MPI_PROCESS=26 /
&MESH ID='Mesh02_2_3', IJK=36,18,32, XB=8.200000,10.100000,0.800000,1.700000,-0.600000,1.000000, MPI_PROCESS=27 /
&MESH ID='Mesh02_3_0', IJK=36,18,32, XB=8.200000,10.100000,-1.900000,-1.000000,1.000000,2.600000, MPI_PROCESS=28 /
&MESH ID='Mesh02_3_1', IJK=36,18,32, XB=8.200000,10.100000,-1.000000,-0.100000,1.000000,2.600000, MPI_PROCESS=29 /
&MESH ID='Mesh02_3_2', IJK=36,18,32, XB=8.200000,10.100000,-0.100000,0.800000,1.000000,2.600000, MPI_PROCESS=30 /
&MESH ID='Mesh02_3_3', IJK=36,18,32, XB=8.200000,10.100000,0.800000,1.700000,1.000000,2.600000, MPI_PROCESS=31 /


&SPEC ID='SFPE POLYURETHANE_GM27_fuel', FORMULA='C1.0H1.7O0.3N0.08'/

&REAC ID='SIMPLE_BURN', FUEL='SFUEL', C=1.0, H=1.7, O=0.3, N=0.08,
      HEAT_OF_COMBUSTION=2.0E4, CO_YIELD=0.03, SOOT_YIELD=0.10, RADIATIVE_FRACTION=0.35/


&MATL ID='EBLXW',
      SPECIFIC_HEAT=1.0,
      CONDUCTIVITY=0.35,
      DENSITY=2540.0,
      EMISSIVITY=0.9/
&MATL ID='BXSSL',
      SPECIFIC_HEAT=1.46,
      CONDUCTIVITY=0.19,
      DENSITY=1190.0,
      EMISSIVITY=0.9/
&MATL ID='NLZW',
      SPECIFIC_HEAT=1.7,
      CONDUCTIVITY=0.25,
      DENSITY=1140.0,
      EMISSIVITY=0.9/
&MATL ID='HYBLXW',
      SPECIFIC_HEAT=1.0,
      CONDUCTIVITY=0.35,
      DENSITY=2540.0,
      EMISSIVITY=0.9/
&MATL ID='JAZPM',
      SPECIFIC_HEAT=1.4,
      CONDUCTIVITY=0.03,
      DENSITY=35.0,
      EMISSIVITY=0.9/
&MATL ID='LHJ2024',
      SPECIFIC_HEAT=0.875,
      CONDUCTIVITY=60.0,
      DENSITY=2780.0,
      EMISSIVITY=0.9/
&MATL ID='LHJ5052',
      SPECIFIC_HEAT=0.88,
      CONDUCTIVITY=70.0,
      DENSITY=2680.0,
      EMISSIVITY=0.9/
&MATL ID='LHJ7075',
      SPECIFIC_HEAT=0.96,
      CONDUCTIVITY=65.0,
      DENSITY=2810.0,
      EMISSIVITY=0.9/
&MATL ID='LHJ6061', SPECIFIC_HEAT=0.896, CONDUCTIVITY=167.0, DENSITY=2700.0, EMISSIVITY=0.9/
&MATL ID='PVCSL', SPECIFIC_HEAT=0.84, CONDUCTIVITY=0.19, DENSITY=1449.0, EMISSIVITY=0.9/
&MATL ID='CRXJ', SPECIFIC_HEAT=1.12, CONDUCTIVITY=0.19, DENSITY=1500.0, EMISSIVITY=0.9/


&SURF ID='E-玻璃纤维',
      RGB=153,153,153,
      TRANSPARENCY=0.729412,
      MATL_ID(1,1)='EBLXW',
      MATL_MASS_FRACTION(1,1)=1.0,
      THICKNESS(1)=0.12,
      HRRPUA=75,
      IGNITION_TEMPERATURE=400/
&SURF ID='丙烯酸塑料',
      RGB=146,202,166,
      MATL_ID(1,1)='BXSSL',
      MATL_MASS_FRACTION(1,1)=1.0,
      THICKNESS(1)=0.075,
      HRRPUA=250,
      IGNITION_TEMPERATURE=250/
&SURF ID='尼龙织物_床垫',
      RGB=146,26,223,
      TRANSPARENCY=0.886275,
      MATL_ID(1,1)='NLZW',
      MATL_MASS_FRACTION(1,1)=1.0,
      THICKNESS(1)=0.12,
      IGNITION_TEMPERATURE=250,
      HRRPUA=180,
      RAMP_Q='Q_RAMP',
      BURN_AWAY=.FALSE./
&SURF ID='尼龙织物_窗帘3mm',
      RGB=146,26,223,
      TRANSPARENCY=0.886275,
      MATL_ID(1,1)='NLZW',
      MATL_MASS_FRACTION(1,1)=1.0,
      THICKNESS(1)=0.03,
      IGNITION_TEMPERATURE=250,
      HRRPUA=180,
      RAMP_Q='Q_RAMP',
      BURN_AWAY=.FALSE./
&SURF ID='环氧玻璃纤维',
      RGB=255,153,153,
      TRANSPARENCY=0.866667,
      MATL_ID(1,1)='HYBLXW',
      MATL_MASS_FRACTION(1,1)=1.0,
      THICKNESS(1)=0.03,
      IGNITION_TEMPERATURE=350,
      HRRPUA=100,
      RAMP_Q='Q_RAMP'/
&SURF ID='聚氨酯泡沫',
      RGB=146,234,117,
      TRANSPARENCY=0.827451,
      MATL_ID(1,1)='JAZPM',
      MATL_MASS_FRACTION(1,1)=1.0,
      THICKNESS(1)=0.15,
      IGNITION_TEMPERATURE=250,
      HRRPUA=200,
      RAMP_Q='Q_RAMP',
      BURN_AWAY=.FALSE./
&SURF ID='铝合金2024',
      RGB=153,153,153,
      TRANSPARENCY=0.54902,
      MATL_ID(1,1)='LHJ2024',
      MATL_MASS_FRACTION(1,1)=1.0,
      THICKNESS(1)=0.002/
&SURF ID='铝合金5052',
      RGB=255,255,51,
      TRANSPARENCY=0.827451,
      MATL_ID(1,1)='LHJ5052',
      MATL_MASS_FRACTION(1,1)=1.0,
      THICKNESS(1)=1.5E-3/
&SURF ID='铝合金7075',
      RGB=153,153,0,
      TRANSPARENCY=0.819608,
      MATL_ID(1,1)='LHJ7075',
      MATL_MASS_FRACTION(1,1)=1.0,
      THICKNESS(1)=0.003/
&SURF ID='铝合金7075_氧气瓶',
      RGB=0,255,153,
      MATL_ID(1,1)='LHJ7075',
      MATL_MASS_FRACTION(1,1)=1.0,
      THICKNESS(1)=5.0E-3/
&SURF ID='导航子系统',
      RGB=204,255,51,
      MATL_ID(1,1)='LHJ6061',
      MATL_MASS_FRACTION(1,1)=1.0,
      THICKNESS(1)=3.0E-3/
&SURF ID='任务子系统',
      RGB=204,255,51,
      MATL_ID(1,1)='LHJ6061',
      MATL_MASS_FRACTION(1,1)=1.0,
      THICKNESS(1)=3.0E-3/
&SURF ID='显示子系统',
      RGB=204,255,51,
      MATL_ID(1,1)='LHJ6061',
      MATL_MASS_FRACTION(1,1)=1.0,
      THICKNESS(1)=3.0E-3/
&SURF ID='通信子系统',
      RGB=204,255,51,
      MATL_ID(1,1)='LHJ6061',
      MATL_MASS_FRACTION(1,1)=1.0,
      THICKNESS(1)=3.0E-3/
&SURF ID='电池',
      RGB=204,255,51,
      MATL_ID(1,1)='LHJ6061',
      MATL_MASS_FRACTION(1,1)=1.0,
      THICKNESS(1)=3.0E-3/
&SURF ID='电力传输子系统',
      RGB=204,255,51,
      HRRPUA=200.0,
      IGNITION_TEMPERATURE=468.6,
      MATL_ID(1,1)='PVCSL',
      MATL_MASS_FRACTION(1,1)=1.0,
      THICKNESS(1)=1.0E-3, RAMP_Q='Q_RAMP'/
&SURF ID='操纵子系统',
      RGB=204,255,51,
      HRRPUA=180.0,
      IGNITION_TEMPERATURE=410.0,
      MATL_ID(1,1)='CRXJ',
      MATL_MASS_FRACTION(1,1)=1.0,
      THICKNESS(1)=2.0E-3, RAMP_Q='Q_RAMP'/


&OBST ID='A01.stl', XB=2.775558E-17,0.1,-0.1,0.1,-0.2,-0.2, SURF_ID='E-玻璃纤维'/ 
&OBST ID='A01.stl', XB=2.775558E-17,0.1,-0.1,0.1,0.2,0.2, SURF_ID='E-玻璃纤维'/ 
&OBST ID='A01.stl', XB=0.1,0.2,-0.1,0.1,-0.3,-0.3, SURF_ID='E-玻璃纤维'/ 
&OBST ID='A01.stl', XB=0.1,0.2,-0.2,-0.1,-0.2,-0.2, SURF_ID='E-玻璃纤维'/ 
&OBST ID='A01.stl', XB=0.1,0.2,0.1,0.2,-0.2,-0.2, SURF_ID='E-玻璃纤维'/ 
&OBST ID='A01.stl', XB=0.1,0.2,-0.2,-0.1,0.2,0.2, SURF_ID='E-玻璃纤维'/ 
&OBST ID='A01.stl', XB=0.1,0.2,0.1,0.2,0.2,0.2, SURF_ID='E-玻璃纤维'/ 
&OBST ID='A01.stl', XB=0.1,0.2,-0.1,0.1,0.3,0.3, SURF_ID='E-玻璃纤维'/ 
&OBST ID='A01.stl', XB=0.2,0.3,-0.2,-0.1,-0.3,-0.3, SURF_ID='E-玻璃纤维'/ 
&OBST ID='A01.stl', XB=0.2,0.3,0.1,0.2,-0.3,-0.3, SURF_ID='E-玻璃纤维'/ 
&OBST ID='A01.stl', XB=0.2,0.3,-0.3,-0.2,-0.2,-0.2, SURF_ID='E-玻璃纤维'/ 
&OBST ID='A01.stl', XB=0.2,0.3,0.2,0.3,-0.2,-0.2, SURF_ID='E-玻璃纤维'/ 
&OBST ID='A01.stl', XB=0.2,0.3,-0.3,-0.2,0.2,0.2, SURF_ID='E-玻璃纤维'/ 
&OBST ID='A01.stl', XB=0.2,0.3,0.2,0.3,0.2,0.2, SURF_ID='E-玻璃纤维'/ 
&OBST ID='A01.stl', XB=0.2,0.3,-0.2,-0.1,0.3,0.3, SURF_ID='E-玻璃纤维'/ 
&OBST ID='A01.stl', XB=0.2,0.3,0.1,0.2,0.3,0.3, SURF_ID='E-玻璃纤维'/ 
&OBST ID='A01.stl', XB=0.2,0.4,-0.1,0.1,-0.4,-0.4, SURF_ID='E-玻璃纤维'/ 
&OBST ID='A01.stl', XB=0.2,0.4,-0.1,0.1,0.4,0.4, SURF_ID='E-玻璃纤维'/ 
&OBST ID='A01.stl', XB=0.3,0.4,-0.2,-0.1,-0.4,-0.4, SURF_ID='E-玻璃纤维'/ 
&OBST ID='A01.stl', XB=0.3,0.4,0.1,0.2,-0.4,-0.4, SURF_ID='E-玻璃纤维'/ 
! ... 557 like lines cut
&OBST ID='A02.stl', XB=1.4,1.5,-0.3,-0.2,-0.9,-0.9, SURF_ID='铝合金2024'/ 
&OBST ID='A02.stl', XB=1.4,1.5,0.2,0.3,-0.9,-0.9, SURF_ID='铝合金2024'/ 
&OBST ID='A02.stl', XB=1.4,1.5,-0.5,-0.4,-0.8,-0.8, SURF_ID='铝合金2024'/ 
&OBST ID='A02.stl', XB=1.4,1.5,0.4,0.5,-0.8,-0.8, SURF_ID='铝合金2024'/ 
&OBST ID='A02.stl', XB=1.4,1.5,-0.6,-0.5,-0.7,-0.7, SURF_ID='铝合金2024'/ 
&OBST ID='A02.stl', XB=1.4,1.5,0.5,0.6,-0.7,-0.7, SURF_ID='铝合金2024'/ 
&OBST ID='A02.stl', XB=1.4,1.5,-0.7,-0.6,-0.6,-0.6, SURF_ID='铝合金2024'/ 
&OBST ID='A02.stl', XB=1.4,1.5,0.6,0.7,-0.6,-0.6, SURF_ID='铝合金2024'/ 
&OBST ID='A02.stl', XB=1.4,1.5,-0.9,-0.8,-0.3,-0.3, SURF_ID='铝合金2024'/ 
&OBST ID='A02.stl', XB=1.4,1.5,0.8,0.9,-0.3,-0.3, SURF_ID='铝合金2024'/ 
&OBST ID='A02.stl', XB=1.4,1.5,-0.9,-0.8,0.5,0.5, SURF_ID='铝合金2024'/ 
&OBST ID='A02.stl', XB=1.4,1.5,0.8,0.9,0.5,0.5, SURF_ID='铝合金2024'/ 
&OBST ID='A02.stl', XB=1.4,1.5,-0.6,-0.5,0.8,0.8, SURF_ID='铝合金2024'/ 
&OBST ID='A02.stl', XB=1.4,1.5,0.5,0.6,0.8,0.8, SURF_ID='铝合金2024'/ 
&OBST ID='A02.stl', XB=1.4,1.5,-0.5,-0.3,0.9,0.9, SURF_ID='铝合金2024'/ 
&OBST ID='A02.stl', XB=1.4,1.5,0.3,0.5,0.9,0.9, SURF_ID='铝合金2024'/ 
&OBST ID='A02.stl', XB=1.4,1.6,-0.1,0.1,-1.0,-1.0, SURF_ID='铝合金2024'/ 
&OBST ID='A02.stl', XB=1.4,1.6,-0.4,-0.3,-0.9,-0.9, SURF_ID='铝合金2024'/ 
&OBST ID='A02.stl', XB=1.4,1.6,0.3,0.4,-0.9,-0.9, SURF_ID='铝合金2024'/ 
&OBST ID='A02.stl', XB=1.4,1.6,-0.8,-0.7,-0.5,-0.5, SURF_ID='铝合金2024'/ 
! ... 2290 like lines cut
&OBST ID='A03.stl', XB=1.7,1.8,-0.4,-0.3,1.1,1.1, SURF_ID='丙烯酸塑料'/ 
&OBST ID='A03.stl', XB=1.7,1.8,0.3,0.4,1.1,1.1, SURF_ID='丙烯酸塑料'/ 
&OBST ID='A03.stl', XB=1.7,1.9,-0.3,0.3,1.2,1.2, SURF_ID='丙烯酸塑料'/ 
&OBST ID='A03.stl', XB=1.8,1.9,-0.4,-0.3,1.2,1.2, SURF_ID='丙烯酸塑料'/ 
&OBST ID='A03.stl', XB=1.8,1.9,0.3,0.4,1.2,1.2, SURF_ID='丙烯酸塑料'/ 
&OBST ID='A03.stl', XB=1.9,2.0,-0.3,0.3,1.3,1.3, SURF_ID='丙烯酸塑料'/ 
&OBST ID='A03.stl', XB=1.9,2.1,-0.5,-0.4,1.2,1.2, SURF_ID='丙烯酸塑料'/ 
&OBST ID='A03.stl', XB=1.9,2.1,0.4,0.5,1.2,1.2, SURF_ID='丙烯酸塑料'/ 
&OBST ID='A03.stl', XB=1.9,2.1,-0.4,-0.3,1.3,1.3, SURF_ID='丙烯酸塑料'/ 
&OBST ID='A03.stl', XB=1.9,2.1,0.3,0.4,1.3,1.3, SURF_ID='丙烯酸塑料'/ 
&OBST ID='A03.stl', XB=2.0,2.1,-0.2,0.2,1.4,1.4, SURF_ID='丙烯酸塑料'/ 
&OBST ID='A03.stl', XB=2.0,2.2,-0.6,-0.5,1.2,1.2, SURF_ID='丙烯酸塑料'/ 
&OBST ID='A03.stl', XB=2.0,2.2,0.5,0.6,1.2,1.2, SURF_ID='丙烯酸塑料'/ 
&OBST ID='A03.stl', XB=2.1,2.2,-0.7,-0.6,1.1,1.1, SURF_ID='丙烯酸塑料'/ 
&OBST ID='A03.stl', XB=2.1,2.2,0.6,0.7,1.1,1.1, SURF_ID='丙烯酸塑料'/ 
&OBST ID='A03.stl', XB=2.1,2.2,-0.5,-0.4,1.3,1.3, SURF_ID='丙烯酸塑料'/ 
&OBST ID='A03.stl', XB=2.1,2.2,0.4,0.5,1.3,1.3, SURF_ID='丙烯酸塑料'/ 
&OBST ID='A03.stl', XB=2.1,2.2,-0.4,-0.3,1.4,1.4, SURF_ID='丙烯酸塑料'/ 
&OBST ID='A03.stl', XB=2.1,2.2,0.3,0.4,1.4,1.4, SURF_ID='丙烯酸塑料'/ 
&OBST ID='A03.stl', XB=2.1,2.2,-0.2,0.2,1.5,1.5, SURF_ID='丙烯酸塑料'/ 
! ... 327 like lines cut
&OBST ID='C01.stl', XB=1.6,3.8,-1.0,1.0,8.604228E-16,8.604228E-16, SURF_ID='铝合金7075'/ 
&OBST ID='C01.stl', XB=1.6,6.3,-0.3,0.3,0.1,0.1, SURF_ID='铝合金7075'/ 
&OBST ID='C01.stl', XB=1.6,8.2,-1.0,-0.3,0.1,0.1, SURF_ID='铝合金7075'/ 
&OBST ID='C01.stl', XB=1.6,8.2,0.3,1.0,0.1,0.1, SURF_ID='铝合金7075'/ 
&OBST ID='C01.stl', XB=1.8,3.8,-1.1,-1.0,8.604228E-16,8.604228E-16, SURF_ID='铝合金7075'/ 
&OBST ID='C01.stl', XB=1.8,3.8,1.0,1.1,8.604228E-16,8.604228E-16, SURF_ID='铝合金7075'/ 
&OBST ID='C01.stl', XB=1.8,8.2,-1.1,-1.0,0.1,0.1, SURF_ID='铝合金7075'/ 
&OBST ID='C01.stl', XB=1.8,8.2,1.0,1.1,0.1,0.1, SURF_ID='铝合金7075'/ 
&OBST ID='C01.stl', XB=2.1,8.2,-1.2,-1.1,0.1,0.1, SURF_ID='铝合金7075'/ 
&OBST ID='C01.stl', XB=2.1,8.2,1.1,1.2,0.1,0.1, SURF_ID='铝合金7075'/ 
&OBST ID='C01.stl', XB=2.2,3.8,-1.2,-1.1,8.604228E-16,8.604228E-16, SURF_ID='铝合金7075'/ 
&OBST ID='C01.stl', XB=2.2,3.8,1.1,1.2,8.604228E-16,8.604228E-16, SURF_ID='铝合金7075'/ 
&OBST ID='C01.stl', XB=2.5,8.2,-1.3,-1.2,0.1,0.1, SURF_ID='铝合金7075'/ 
&OBST ID='C01.stl', XB=2.5,8.2,1.2,1.3,0.1,0.1, SURF_ID='铝合金7075'/ 
&OBST ID='C01.stl', XB=2.6,3.8,-1.3,-1.2,8.604228E-16,8.604228E-16, SURF_ID='铝合金7075'/ 
&OBST ID='C01.stl', XB=2.6,3.8,1.2,1.3,8.604228E-16,8.604228E-16, SURF_ID='铝合金7075'/ 
&OBST ID='C01.stl', XB=3.0,3.8,-1.4,-1.3,8.604228E-16,8.604228E-16, SURF_ID='铝合金7075'/ 
&OBST ID='C01.stl', XB=3.0,3.8,1.3,1.4,8.604228E-16,8.604228E-16, SURF_ID='铝合金7075'/ 
&OBST ID='C01.stl', XB=3.0,8.2,-1.4,-1.3,0.1,0.1, SURF_ID='铝合金7075'/ 
&OBST ID='C01.stl', XB=3.0,8.2,1.3,1.4,0.1,0.1, SURF_ID='铝合金7075'/ 
! ... 10 like lines cut
&OBST ID='C01.stl', XB=3.8,3.9,-1.5,-1.4,-0.4,-0.4/ 
&OBST ID='C01.stl', XB=3.8,3.9,1.4,1.5,-0.4,-0.4/ 
&OBST ID='C01.stl', XB=3.8,8.2,-0.9,0.9,-1.4,-1.4, SURF_ID='铝合金7075'/ 
&OBST ID='C01.stl', XB=3.9,4.0,-1.5,-1.4,-0.5,-0.5/ 
&OBST ID='C01.stl', XB=3.9,4.0,1.4,1.5,-0.5,-0.5/ 
&OBST ID='C01.stl', XB=3.9,4.4,-1.1,-1.0,-1.3,-1.3, SURF_ID='铝合金7075'/ 
&OBST ID='C01.stl', XB=3.9,4.4,1.0,1.1,-1.3,-1.3, SURF_ID='铝合金7075'/ 
&OBST ID='C01.stl', XB=3.9,4.4,-1.2,-1.1,-1.2,-1.2, SURF_ID='铝合金7075'/ 
&OBST ID='C01.stl', XB=3.9,4.4,1.1,1.2,-1.2,-1.2, SURF_ID='铝合金7075'/ 
&OBST ID='C01.stl', XB=3.9,8.2,-1.0,-0.9,-1.4,-1.4, SURF_ID='铝合金7075'/ 
&OBST ID='C01.stl', XB=3.9,8.2,0.9,1.0,-1.4,-1.4, SURF_ID='铝合金7075'/ 
&OBST ID='C01.stl', XB=4.4,4.9,-1.2,-1.1,-1.3,-1.3, SURF_ID='铝合金7075'/ 
&OBST ID='C01.stl', XB=4.4,4.9,1.1,1.2,-1.3,-1.3, SURF_ID='铝合金7075'/ 
&OBST ID='C01.stl', XB=4.4,8.2,-1.1,-1.0,-1.4,-1.4, SURF_ID='铝合金7075'/ 
&OBST ID='C01.stl', XB=4.4,8.2,1.0,1.1,-1.4,-1.4, SURF_ID='铝合金7075'/ 
&OBST ID='C01.stl', XB=4.9,8.2,-1.2,-1.1,-1.4,-1.4, SURF_ID='铝合金7075'/ 
&OBST ID='C01.stl', XB=4.9,8.2,1.1,1.2,-1.4,-1.4, SURF_ID='铝合金7075'/ 
&OBST ID='C01.stl', XB=5.5,8.2,-1.3,-1.2,-1.4,-1.4, SURF_ID='铝合金7075'/ 
&OBST ID='C01.stl', XB=5.5,8.2,1.2,1.3,-1.4,-1.4, SURF_ID='铝合金7075'/ 
&OBST ID='C01.stl', XB=6.3,8.2,-1.4,-1.3,-1.4,-1.4, SURF_ID='铝合金7075'/ 
&OBST ID='C01.stl', XB=6.3,8.2,1.3,1.4,-1.4,-1.4, SURF_ID='铝合金7075'/ 
&OBST ID='C01.stl', XB=6.9,8.2,-0.3,0.3,0.1,0.1, SURF_ID='铝合金7075'/ 
&OBST ID='C01.stl', XB=3.8,3.9,-0.9,-0.9,-1.4,-1.3, SURF_ID='铝合金7075'/ 
&OBST ID='C01.stl', XB=3.8,3.9,0.9,0.9,-1.4,-1.3, SURF_ID='铝合金7075'/ 
&OBST ID='C01.stl', XB=3.8,3.9,-1.0,-1.0,-1.3,-1.2, SURF_ID='铝合金7075'/ 
! ... 5 like lines cut
&OBST ID='C01.stl', XB=3.8,3.9,-1.4,-1.4,-0.6,-0.4/ 
&OBST ID='C01.stl', XB=3.8,3.9,1.4,1.4,-0.6,-0.4/ 
&OBST ID='C01.stl', XB=3.9,4.0,-1.2,-1.2,-1.2,-1.0, SURF_ID='铝合金7075'/ 
&OBST ID='C01.stl', XB=3.9,4.0,1.2,1.2,-1.2,-1.0, SURF_ID='铝合金7075'/ 
&OBST ID='C01.stl', XB=3.9,4.4,-1.0,-1.0,-1.4,-1.3, SURF_ID='铝合金7075'/ 
&OBST ID='C01.stl', XB=3.9,4.4,1.0,1.0,-1.4,-1.3, SURF_ID='铝合金7075'/ 
&OBST ID='C01.stl', XB=3.9,4.4,-1.1,-1.1,-1.3,-1.2, SURF_ID='铝合金7075'/ 
&OBST ID='C01.stl', XB=3.9,4.4,1.1,1.1,-1.3,-1.2, SURF_ID='铝合金7075'/ 
&OBST ID='C01.stl', XB=4.0,4.4,-1.2,-1.2,-1.2,-1.1, SURF_ID='铝合金7075'/ 
&OBST ID='C01.stl', XB=4.0,4.4,1.2,1.2,-1.2,-1.1, SURF_ID='铝合金7075'/ 
&OBST ID='C01.stl', XB=4.4,4.5,-1.2,-1.2,-1.3,-1.1, SURF_ID='铝合金7075'/ 
&OBST ID='C01.stl', XB=4.4,4.5,1.2,1.2,-1.3,-1.1, SURF_ID='铝合金7075'/ 
&OBST ID='C01.stl', XB=4.4,4.9,-1.1,-1.1,-1.4,-1.3, SURF_ID='铝合金7075'/ 
&OBST ID='C01.stl', XB=4.4,4.9,1.1,1.1,-1.4,-1.3, SURF_ID='铝合金7075'/ 
&OBST ID='C01.stl', XB=4.5,4.9,-1.2,-1.2,-1.3,-1.2, SURF_ID='铝合金7075'/ 
&OBST ID='C01.stl', XB=4.5,4.9,1.2,1.2,-1.3,-1.2, SURF_ID='铝合金7075'/ 
&OBST ID='C01.stl', XB=4.9,5.2,-1.2,-1.2,-1.4,-1.3, SURF_ID='铝合金7075'/ 
&OBST ID='C01.stl', XB=4.9,5.2,1.2,1.2,-1.4,-1.3, SURF_ID='铝合金7075'/ 
&OBST ID='C01.stl', XB=1.6,1.6,-1.0,-0.9,8.604228E-16,0.4, SURF_ID='铝合金7075'/ 
&OBST ID='C01.stl', XB=1.6,1.6,0.9,1.0,8.604228E-16,0.4, SURF_ID='铝合金7075'/ 
&OBST ID='C01.stl', XB=1.6,1.6,-0.9,-0.8,8.604228E-16,0.6, SURF_ID='铝合金7075'/ 
&OBST ID='C01.stl', XB=1.6,1.6,0.8,0.9,8.604228E-16,0.6, SURF_ID='铝合金7075'/ 
! ... 32 like lines cut
&OBST ID='C01.stl', XB=3.9,3.9,-1.5,-1.4,-0.5,-0.4/ 
&OBST ID='C01.stl', XB=3.9,3.9,1.4,1.5,-0.5,-0.4/ 
&OBST ID='C01.stl', XB=4.4,4.4,-1.1,-1.0,-1.4,-1.3, SURF_ID='铝合金7075'/ 
&OBST ID='C01.stl', XB=4.4,4.4,1.0,1.1,-1.4,-1.3, SURF_ID='铝合金7075'/ 
&OBST ID='C01.stl', XB=4.4,4.4,-1.2,-1.1,-1.3,-1.2, SURF_ID='铝合金7075'/ 
&OBST ID='C01.stl', XB=4.4,4.4,1.1,1.2,-1.3,-1.2, SURF_ID='铝合金7075'/ 
&OBST ID='C01.stl', XB=4.9,4.9,-1.2,-1.1,-1.4,-1.3, SURF_ID='铝合金7075'/ 
&OBST ID='C01.stl', XB=4.9,4.9,1.1,1.2,-1.4,-1.3, SURF_ID='铝合金7075'/ 
&OBST ID='C01.stl', XB=8.2,8.886111,-1.4,1.4,-1.35,-1.35, SURF_ID='铝合金7075'/ 
&OBST ID='C01.stl', XB=8.2,9.15,-1.5,1.5,0.15,0.15, SURF_ID='铝合金7075'/ 
&OBST ID='C01.stl', XB=8.886111,8.886111,-0.75,0.75,-1.85,0.15, SURF_ID='铝合金7075'/ 
&OBST ID='C01.stl', XB=8.886111,8.886111,-0.9,-0.75,-1.8,0.15, SURF_ID='铝合金7075'/ 
&OBST ID='C01.stl', XB=8.886111,8.886111,0.75,0.9,-1.8,0.15, SURF_ID='铝合金7075'/ 
&OBST ID='C01.stl', XB=8.886111,8.886111,-1.0,-0.9,-1.75,0.15, SURF_ID='铝合金7075'/ 
&OBST ID='C01.stl', XB=8.886111,8.886111,0.9,1.0,-1.75,0.15, SURF_ID='铝合金7075'/ 
&OBST ID='C01.stl', XB=8.886111,8.886111,-1.05,-1.0,-1.7,0.15, SURF_ID='铝合金7075'/ 
&OBST ID='C01.stl', XB=8.886111,8.886111,1.0,1.05,-1.7,0.15, SURF_ID='铝合金7075'/ 
&OBST ID='C01.stl', XB=8.886111,8.886111,-1.15,-1.05,-1.65,-0.1, SURF_ID='铝合金7075'/ 
&OBST ID='C01.stl', XB=8.886111,8.886111,1.05,1.15,-1.65,0.15, SURF_ID='铝合金7075'/ 
&OBST ID='C01.stl', XB=8.886111,8.886111,-1.2,-1.15,-1.6,0.15, SURF_ID='铝合金7075'/ 
&OBST ID='C01.stl', XB=8.886111,8.886111,1.15,1.2,-1.6,0.15, SURF_ID='铝合金7075'/ 
&OBST ID='C01.stl', XB=8.886111,8.886111,-1.25,-1.2,-1.55,0.15, SURF_ID='铝合金7075'/ 
! ... 78 like lines cut
&OBST ID='U01.stl', XB=2.0,2.1,-0.3,-0.2,1.0,1.0, SURF_ID='尼龙织物_窗帘3mm'/ 
&OBST ID='U01.stl', XB=2.0,2.1,0.2,0.3,1.0,1.0, SURF_ID='尼龙织物_窗帘3mm'/ 
&OBST ID='U01.stl', XB=2.0,2.1,-0.1,0.1,1.1,1.1, SURF_ID='尼龙织物_窗帘3mm'/ 
&OBST ID='U01.stl', XB=2.0,2.2,-0.2,-0.1,1.1,1.1, SURF_ID='尼龙织物_窗帘3mm'/ 
&OBST ID='U01.stl', XB=2.0,2.2,0.1,0.2,1.1,1.1, SURF_ID='尼龙织物_窗帘3mm'/ 
&OBST ID='U01.stl', XB=2.1,2.2,-0.4,-0.3,1.0,1.0, SURF_ID='尼龙织物_窗帘3mm'/ 
&OBST ID='U01.stl', XB=2.1,2.2,0.3,0.4,1.0,1.0, SURF_ID='尼龙织物_窗帘3mm'/ 
&OBST ID='U01.stl', XB=2.1,2.2,-0.3,-0.2,1.1,1.1, SURF_ID='尼龙织物_窗帘3mm'/ 
&OBST ID='U01.stl', XB=2.1,2.2,0.2,0.3,1.1,1.1, SURF_ID='尼龙织物_窗帘3mm'/ 
&OBST ID='U01.stl', XB=2.1,2.2,-0.1,0.1,1.2,1.2, SURF_ID='尼龙织物_窗帘3mm'/ 
&OBST ID='U01.stl', XB=2.2,2.3,-0.5,-0.4,1.0,1.0, SURF_ID='尼龙织物_窗帘3mm'/ 
&OBST ID='U01.stl', XB=2.2,2.3,0.4,0.5,1.0,1.0, SURF_ID='尼龙织物_窗帘3mm'/ 
&OBST ID='U01.stl', XB=2.2,2.3,-0.4,-0.3,1.1,1.1, SURF_ID='尼龙织物_窗帘3mm'/ 
&OBST ID='U01.stl', XB=2.2,2.3,0.3,0.4,1.1,1.1, SURF_ID='尼龙织物_窗帘3mm'/ 
&OBST ID='U01.stl', XB=2.2,2.3,-0.3,-0.1,1.2,1.2, SURF_ID='尼龙织物_窗帘3mm'/ 
&OBST ID='U01.stl', XB=2.2,2.3,0.1,0.3,1.2,1.2, SURF_ID='尼龙织物_窗帘3mm'/ 
&OBST ID='U01.stl', XB=2.2,2.3,-0.1,0.1,1.3,1.3, SURF_ID='尼龙织物_窗帘3mm'/ 
&OBST ID='U01.stl', XB=2.3,2.4,-0.6,-0.5,1.0,1.0, SURF_ID='尼龙织物_窗帘3mm'/ 
&OBST ID='U01.stl', XB=2.3,2.4,0.5,0.6,1.0,1.0, SURF_ID='尼龙织物_窗帘3mm'/ 
&OBST ID='U01.stl', XB=2.3,2.4,-0.5,-0.4,1.1,1.1, SURF_ID='尼龙织物_窗帘3mm'/ 
! ... 367 like lines cut
&OBST ID='U03.stl', XB=3.5,3.6,-1.0,-0.9,0.1,0.5, SURF_ID='铝合金7075_氧气瓶'/ 
&OBST ID='U03.stl', XB=3.5,3.6,0.9,1.0,0.1,0.5, SURF_ID='铝合金7075_氧气瓶'/ 
&OBST ID='U03.stl', XB=5.9,6.1,-1.1,-1.0,-1.4,-1.0, SURF_ID='铝合金7075_氧气瓶'/ 
&OBST ID='U03.stl', XB=5.9,6.1,1.0,1.1,-1.4,-1.0, SURF_ID='铝合金7075_氧气瓶'/ 
&OBST ID='U03.stl', XB=7.7,7.8,-1.0,-0.9,0.1,0.5, SURF_ID='铝合金7075_氧气瓶'/ 
&OBST ID='U03.stl', XB=7.7,7.8,0.9,1.0,0.1,0.5, SURF_ID='铝合金7075_氧气瓶'/ 
&OBST ID='U05.stl', XB=5.0,7.0,-1.3,-0.7,0.5,0.7, SURF_ID='尼龙织物_床垫'/ 
&OBST ID='U06.stl', XB=3.3,3.8,-0.9,-0.4,0.4,0.4, SURF_ID='聚氨酯泡沫'/ 
&OBST ID='U06.stl', XB=3.3,3.8,-0.9,-0.4,0.5,0.5, SURF_ID='聚氨酯泡沫'/ 
&OBST ID='U06.stl', XB=3.8,4.0,-0.9,-0.4,1.3,1.3, SURF_ID='聚氨酯泡沫'/ 
&OBST ID='U06.stl', XB=3.8,4.0,-0.9,-0.4,1.5,1.5, SURF_ID='聚氨酯泡沫'/ 
&OBST ID='U06.stl', XB=3.3,3.8,-0.9,-0.9,0.4,0.5, SURF_ID='聚氨酯泡沫'/ 
&OBST ID='U06.stl', XB=3.3,3.8,-0.4,-0.4,0.4,0.5, SURF_ID='聚氨酯泡沫'/ 
&OBST ID='U06.stl', XB=3.8,4.0,-0.9,-0.9,1.3,1.5, SURF_ID='聚氨酯泡沫'/ 
&OBST ID='U06.stl', XB=3.8,4.0,-0.4,-0.4,1.3,1.5, SURF_ID='聚氨酯泡沫'/ 
&OBST ID='U06.stl', XB=3.3,3.3,-0.9,-0.4,0.4,0.5, SURF_ID='聚氨酯泡沫'/ 
&OBST ID='U06.stl', XB=3.8,3.8,-0.9,-0.4,0.4,1.5, SURF_ID='聚氨酯泡沫'/ 
&OBST ID='U06.stl', XB=4.0,4.0,-0.9,-0.4,1.3,1.5, SURF_ID='聚氨酯泡沫'/ 
&OBST ID='U06.stl', XB=3.3,3.8,0.3,0.8,0.4,0.4, SURF_ID='聚氨酯泡沫'/ 
&OBST ID='U06.stl', XB=3.3,3.8,0.3,0.8,0.5,0.5, SURF_ID='聚氨酯泡沫'/ 
&OBST ID='U06.stl', XB=3.8,4.0,0.3,0.8,1.3,1.3, SURF_ID='聚氨酯泡沫'/ 
&OBST ID='U06.stl', XB=3.8,4.0,0.3,0.8,1.5,1.5, SURF_ID='聚氨酯泡沫'/ 
&OBST ID='U06.stl', XB=3.3,3.8,0.3,0.3,0.4,0.5, SURF_ID='聚氨酯泡沫'/ 
&OBST ID='U06.stl', XB=3.3,3.8,0.8,0.8,0.4,0.5, SURF_ID='聚氨酯泡沫'/ 
&OBST ID='U06.stl', XB=3.8,4.0,0.3,0.3,1.3,1.5, SURF_ID='聚氨酯泡沫'/ 
&OBST ID='U06.stl', XB=3.8,4.0,0.8,0.8,1.3,1.5, SURF_ID='聚氨酯泡沫'/ 
&OBST ID='U06.stl', XB=3.3,3.3,0.3,0.8,0.4,0.5, SURF_ID='聚氨酯泡沫'/ 
! ... 52 like lines cut
&OBST ID='U4.stl', XB=1.9,2.0,-0.3,0.3,0.8,1.1/ 
&OBST ID='U4.stl', XB=2.0,2.1,-0.4,-0.4,0.8,1.1/ 
&OBST ID='U4.stl', XB=2.0,2.1,0.4,0.4,0.8,1.1/ 
&OBST ID='U4.stl', XB=2.1,2.2,-0.6,-0.6,0.1,0.8/ 
&OBST ID='U4.stl', XB=2.1,2.2,0.6,0.6,0.1,0.8/ 
&OBST ID='U4.stl', XB=2.2,2.5,-0.7,-0.7,0.1,0.8/ 
&OBST ID='U4.stl', XB=2.2,2.5,0.7,0.7,0.1,0.8/ 
&OBST ID='U4.stl', XB=2.5,2.9,-0.8,-0.8,0.1,0.8/ 
&OBST ID='U4.stl', XB=2.5,2.9,0.8,0.8,0.1,0.8/ 
&OBST ID='U4.stl', XB=2.9,3.2,-0.9,-0.9,0.1,0.8/ 
&OBST ID='U4.stl', XB=2.9,3.2,0.9,0.9,0.1,0.8/ 
&OBST ID='U4.stl', XB=3.2,3.3,-1.0,-1.0,0.1,0.8/ 
&OBST ID='U4.stl', XB=3.2,3.3,1.0,1.0,0.1,0.8/ 
&OBST ID='U4.stl', XB=2.0,2.0,-0.4,-0.3,0.8,1.1/ 
&OBST ID='U4.stl', XB=2.0,2.0,0.3,0.4,0.8,1.1/ 
&OBST ID='U4.stl', XB=2.1,2.1,-0.6,0.6,0.1,0.8/ 
&OBST ID='U4.stl', XB=2.2,2.2,-0.7,-0.6,0.1,0.8/ 
&OBST ID='U4.stl', XB=2.2,2.2,0.6,0.7,0.1,0.8/ 
&OBST ID='U4.stl', XB=2.5,2.5,-0.8,-0.7,0.1,0.8/ 
&OBST ID='U4.stl', XB=2.5,2.5,0.7,0.8,0.1,0.8/ 
! ... 4 like lines cut
&OBST ID='U4.stl', XB=8.411111,8.516667,1.15,1.15,0.4,1.5, SURF_ID='环氧玻璃纤维'/ 
&OBST ID='U4.stl', XB=8.516667,8.622222,1.1,1.1,0.4,1.5, SURF_ID='环氧玻璃纤维'/ 
&OBST ID='U4.stl', XB=8.622222,8.727778,1.05,1.05,0.4,1.5, SURF_ID='环氧玻璃纤维'/ 
&OBST ID='U4.stl', XB=8.727778,8.833333,1.0,1.0,0.4,1.5, SURF_ID='环氧玻璃纤维'/ 
&OBST ID='U4.stl', XB=8.833333,8.938889,0.95,0.95,0.4,1.5, SURF_ID='环氧玻璃纤维'/ 
&OBST ID='U4.stl', XB=8.411111,8.411111,1.15,1.2,0.4,1.5, SURF_ID='环氧玻璃纤维'/ 
&OBST ID='U4.stl', XB=8.516667,8.516667,1.1,1.15,0.4,1.5, SURF_ID='环氧玻璃纤维'/ 
&OBST ID='U4.stl', XB=8.622222,8.622222,1.05,1.1,0.4,1.5, SURF_ID='环氧玻璃纤维'/ 
&OBST ID='U4.stl', XB=8.727778,8.727778,1.0,1.05,0.4,1.5, SURF_ID='环氧玻璃纤维'/ 
&OBST ID='U4.stl', XB=8.833333,8.833333,0.95,1.0,0.4,1.5, SURF_ID='环氧玻璃纤维'/ 
&OBST ID='U4.stl', XB=8.938889,8.938889,-0.95,0.95,0.4,1.5, SURF_ID='环氧玻璃纤维'/ 
&OBST ID='U4.stl', XB=5.2,5.3,-0.9,-0.8,-0.8,0.1/ 
&OBST ID='U4.stl', XB=5.2,5.3,0.8,0.9,-0.8,0.1/ 
&OBST ID='U4.stl', XB=5.0,5.2,-0.8,-0.8,-0.8,0.1/ 
&OBST ID='U4.stl', XB=5.0,5.2,0.8,0.8,-0.8,0.1/ 
&OBST ID='U4.stl', XB=5.3,5.5,-0.9,-0.9,-0.8,0.1/ 
&OBST ID='U4.stl', XB=5.3,5.5,0.9,0.9,-0.8,0.1/ 
&OBST ID='U4.stl', XB=5.5,5.8,-1.0,-1.0,-0.8,0.1/ 
&OBST ID='U4.stl', XB=5.5,5.8,1.0,1.0,-0.8,0.1/ 
&OBST ID='U4.stl', XB=5.0,5.0,-0.8,0.8,-0.8,0.1/ 
&OBST ID='U4.stl', XB=5.5,5.5,-1.0,-0.9,-0.8,0.1/ 
&OBST ID='U4.stl', XB=5.5,5.5,0.9,1.0,-0.8,0.1/ 
&OBST ID='H1.stl', XB=0.6,0.7,-0.3,0.2,0.4,0.5, SURF_ID='导航子系统'/ 
&OBST ID='H1.stl', XB=0.7,0.9,-0.3,0.2,0.4,0.6, SURF_ID='导航子系统'/ 
&OBST ID='H1.stl', XB=0.9,1.0,-0.3,0.2,0.5,0.6, SURF_ID='导航子系统'/ 
&OBST ID='H1.stl', XB=7.5,8.2,-0.9,0.9,-1.3,-1.0, SURF_ID='导航子系统'/ 
&OBST ID='H1.stl', XB=8.2,8.675,-0.9,0.9,-1.35,-1.05, SURF_ID='导航子系统'/ 
&OBST ID='H2.stl', XB=2.3,2.9,-1.0,-0.9,-0.6,-0.4, SURF_ID='任务子系统'/ 
&OBST ID='H2.stl', XB=2.4,2.6,-0.9,-0.8,-0.6,-0.4, SURF_ID='任务子系统'/ 
&OBST ID='H2.stl', XB=2.4,3.2,-1.1,-1.0,-0.6,-0.4, SURF_ID='任务子系统'/ 
&OBST ID='H2.stl', XB=2.7,3.5,-1.2,-1.1,-0.6,-0.4, SURF_ID='任务子系统'/ 
&OBST ID='H2.stl', XB=3.0,3.6,-1.3,-1.2,-0.6,-0.4, SURF_ID='任务子系统'/ 
&OBST ID='H2.stl', XB=3.3,3.5,-1.4,-1.3,-0.6,-0.4, SURF_ID='任务子系统'/ 
&OBST ID='H2.stl', XB=2.3,2.9,0.9,1.0,-0.6,-0.4, SURF_ID='任务子系统'/ 
&OBST ID='H2.stl', XB=2.4,2.6,0.8,0.9,-0.6,-0.4, SURF_ID='任务子系统'/ 
&OBST ID='H2.stl', XB=2.4,3.2,1.0,1.1,-0.6,-0.4, SURF_ID='任务子系统'/ 
&OBST ID='H2.stl', XB=2.7,3.5,1.1,1.2,-0.6,-0.4, SURF_ID='任务子系统'/ 
&OBST ID='H2.stl', XB=3.0,3.6,1.2,1.3,-0.6,-0.4, SURF_ID='任务子系统'/ 
&OBST ID='H2.stl', XB=3.3,3.5,1.3,1.4,-0.6,-0.4, SURF_ID='任务子系统'/ 
&OBST ID='H2.stl', XB=0.6,1.0,-0.5,0.4,-0.3,0.3, SURF_ID='任务子系统'/ 
&OBST ID='H2.stl', XB=0.9,1.1,-0.6,-0.5,-0.3,8.604228E-16, SURF_ID='任务子系统'/ 
&OBST ID='H2.stl', XB=1.0,1.1,-0.3,0.3,-0.3,0.4, SURF_ID='任务子系统'/ 
&OBST ID='H2.stl', XB=1.0,1.4,-0.5,-0.3,-0.3,0.4, SURF_ID='任务子系统'/ 
&OBST ID='H2.stl', XB=1.0,1.4,0.3,0.4,-0.3,0.4, SURF_ID='任务子系统'/ 
&OBST ID='H2.stl', XB=1.1,1.3,-0.3,0.3,-0.3,0.7, SURF_ID='任务子系统'/ 
&OBST ID='H2.stl', XB=1.3,1.4,-0.3,0.3,-0.3,0.4, SURF_ID='任务子系统'/ 
&OBST ID='H2.stl', XB=1.2,1.4,-0.7,-0.6,-0.3,8.604228E-16, SURF_ID='任务子系统'/ 
! ... 7 like lines cut
&OBST ID='H3.stl', XB=1.8,2.1,-0.6,0.6,0.1,0.1, SURF_ID='显示子系统'/ 
&OBST ID='H3.stl', XB=1.8,2.1,-0.6,0.6,0.8,0.8, SURF_ID='显示子系统'/ 
&OBST ID='H3.stl', XB=1.8,2.2,-0.7,-0.6,0.1,0.1, SURF_ID='显示子系统'/ 
&OBST ID='H3.stl', XB=1.8,2.2,0.6,0.7,0.1,0.1, SURF_ID='显示子系统'/ 
&OBST ID='H3.stl', XB=1.8,2.2,-0.7,-0.6,0.8,0.8, SURF_ID='显示子系统'/ 
&OBST ID='H3.stl', XB=1.8,2.2,0.6,0.7,0.8,0.8, SURF_ID='显示子系统'/ 
&OBST ID='H3.stl', XB=1.8,2.5,-0.8,-0.7,0.1,0.1, SURF_ID='显示子系统'/ 
&OBST ID='H3.stl', XB=1.8,2.5,0.7,0.8,0.1,0.1, SURF_ID='显示子系统'/ 
&OBST ID='H3.stl', XB=1.8,2.5,-0.8,-0.7,0.8,0.8, SURF_ID='显示子系统'/ 
&OBST ID='H3.stl', XB=1.8,2.5,0.7,0.8,0.8,0.8, SURF_ID='显示子系统'/ 
&OBST ID='H3.stl', XB=2.0,2.9,-0.9,-0.8,0.1,0.1, SURF_ID='显示子系统'/ 
&OBST ID='H3.stl', XB=2.0,2.9,0.8,0.9,0.1,0.1, SURF_ID='显示子系统'/ 
&OBST ID='H3.stl', XB=2.0,2.9,-0.9,-0.8,0.8,0.8, SURF_ID='显示子系统'/ 
&OBST ID='H3.stl', XB=2.0,2.9,0.8,0.9,0.8,0.8, SURF_ID='显示子系统'/ 
&OBST ID='H3.stl', XB=2.3,3.2,-1.0,-0.9,0.1,0.1, SURF_ID='显示子系统'/ 
&OBST ID='H3.stl', XB=2.3,3.2,0.9,1.0,0.1,0.1, SURF_ID='显示子系统'/ 
&OBST ID='H3.stl', XB=2.3,3.2,-1.0,-0.9,0.8,0.8, SURF_ID='显示子系统'/ 
&OBST ID='H3.stl', XB=2.3,3.2,0.9,1.0,0.8,0.8, SURF_ID='显示子系统'/ 
&OBST ID='H3.stl', XB=2.7,3.3,-1.1,-1.0,0.1,0.1, SURF_ID='显示子系统'/ 
&OBST ID='H3.stl', XB=2.7,3.3,1.0,1.1,0.1,0.1, SURF_ID='显示子系统'/ 
! ... 131 like lines cut
&OBST ID='H4.stl', XB=1.9,2.0,-0.4,-0.3,0.8,1.1, SURF_ID='通信子系统'/ 
&OBST ID='H4.stl', XB=1.9,2.0,0.3,0.4,0.8,1.1, SURF_ID='通信子系统'/ 
&OBST ID='H4.stl', XB=2.0,2.1,-0.5,-0.4,0.8,1.1, SURF_ID='通信子系统'/ 
&OBST ID='H4.stl', XB=2.0,2.1,0.4,0.5,0.8,1.1, SURF_ID='通信子系统'/ 
&OBST ID='H4.stl', XB=1.9,1.9,-0.3,0.3,0.8,1.1, SURF_ID='通信子系统'/ 
&OBST ID='H5.stl', XB=7.4,8.0,-0.5,0.5,-0.9,-0.3, SURF_ID='电池'/ 
&OBST ID='H5.stl', XB=8.0,8.2,-0.1,0.1,-0.6,-0.5, SURF_ID='电池'/ 
&OBST ID='H5.stl', XB=8.2,8.2,-0.1,0.1,-0.9,-0.6, SURF_ID='电池'/ 
&OBST ID='H5.stl', XB=8.2,8.2,-0.5,-0.1,-0.9,-0.3, SURF_ID='电池'/ 
&OBST ID='H5.stl', XB=8.2,8.2,0.1,0.5,-0.9,-0.3, SURF_ID='电池'/ 
&OBST ID='H5.stl', XB=8.2,8.2,-0.1,0.1,-0.5,-0.3, SURF_ID='电池'/ 
&OBST ID='H5.stl', XB=8.2,8.780556,-0.5,0.5,-0.85,-0.25, SURF_ID='电池'/ 
&OBST ID='H6.stl', XB=7.6,7.8,5.828671E-16,5.828671E-16,-0.1,8.604228E-16, SURF_ID='电力传输子系统'/ 
&OBST ID='H6.stl', XB=8.252778,8.358333,-0.05,0.05,-0.15,-0.1, SURF_ID='电力传输子系统'/ 
&OBST ID='H6.stl', XB=8.358333,8.411111,-0.05,0.05,-0.2,-0.15, SURF_ID='电力传输子系统'/ 
&OBST ID='H6.stl', XB=8.2,8.252778,-0.05,0.05,-0.1,-0.1, SURF_ID='电力传输子系统'/ 
&OBST ID='H6.stl', XB=8.411111,8.463889,-0.05,0.05,-0.2,-0.2, SURF_ID='电力传输子系统'/ 
&OBST ID='H6.stl', XB=8.463889,8.516667,-0.05,0.05,-0.25,-0.25, SURF_ID='电力传输子系统'/ 
&OBST ID='H6.stl', XB=8.2,8.252778,1.179612E-15,1.179612E-15,-0.15,-0.05, SURF_ID='电力传输子系统'/ 
&OBST ID='H6.stl', XB=8.411111,8.463889,1.179612E-15,1.179612E-15,-0.25,-0.15, SURF_ID='电力传输子系统'/ 
&OBST ID='H6.stl', XB=8.463889,8.516667,1.179612E-15,1.179612E-15,-0.25,-0.2, SURF_ID='电力传输子系统'/ 
&OBST ID='H6.stl', XB=8.463889,8.463889,-0.05,0.05,-0.25,-0.2, SURF_ID='电力传输子系统'/ 
&OBST ID='H7.stl', XB=3.2,3.3,-0.2,-0.1,0.6,0.7, SURF_ID='操纵子系统'/ 
&OBST ID='H7.stl', XB=3.2,3.3,-0.2,-0.2,0.2,0.6, SURF_ID='操纵子系统'/ 
&OBST ID='H7.stl', XB=2.3,2.6,-0.6,0.6,0.2,0.4, SURF_ID='操纵子系统'/ 

&VENT ID='Mesh Vent: Mesh01 [ZMAX]', SURF_ID='OPEN', XB=-0.3,8.2,-1.9,1.7,2.6,2.6/ 
&VENT ID='Mesh Vent: Mesh02 [ZMAX]', SURF_ID='OPEN', XB=8.2,10.1,-1.9,1.7,2.6,2.6/ 



! Voxel external-flux surface variants
&SURF ID='AL2024_R0070',
      RGB=153,153,153,
      TRANSPARENCY=0.54902,
      MATL_ID(1,1)='LHJ2024',
      MATL_MASS_FRACTION(1,1)=1.0,
      THICKNESS(1)=0.002, EXTERNAL_FLUX=70, RAMP_EF='NUCLEAR_RAMP'/
&SURF ID='AL7075_R0070',
      RGB=153,153,0,
      TRANSPARENCY=0.819608,
      MATL_ID(1,1)='LHJ7075',
      MATL_MASS_FRACTION(1,1)=1.0,
      THICKNESS(1)=0.003, EXTERNAL_FLUX=70, RAMP_EF='NUCLEAR_RAMP'/
&SURF ID='SEAT_R0070',
      RGB=146,234,117,
      TRANSPARENCY=0.827451,
      MATL_ID(1,1)='JAZPM',
      MATL_MASS_FRACTION(1,1)=1.0,
      THICKNESS(1)=0.15,
      IGNITION_TEMPERATURE=250,
      HRRPUA=200,
      RAMP_Q='Q_RAMP',
      BURN_AWAY=.FALSE., EXTERNAL_FLUX=70, RAMP_EF='NUCLEAR_RAMP'/
&SURF ID='AL2024_R0140',
      RGB=153,153,153,
      TRANSPARENCY=0.54902,
      MATL_ID(1,1)='LHJ2024',
      MATL_MASS_FRACTION(1,1)=1.0,
      THICKNESS(1)=0.002, EXTERNAL_FLUX=140, RAMP_EF='NUCLEAR_RAMP'/
&SURF ID='AL7075_R0140',
      RGB=153,153,0,
      TRANSPARENCY=0.819608,
      MATL_ID(1,1)='LHJ7075',
      MATL_MASS_FRACTION(1,1)=1.0,
      THICKNESS(1)=0.003, EXTERNAL_FLUX=140, RAMP_EF='NUCLEAR_RAMP'/
&SURF ID='BED_R0140',
      RGB=146,26,223,
      TRANSPARENCY=0.886275,
      MATL_ID(1,1)='NLZW',
      MATL_MASS_FRACTION(1,1)=1.0,
      THICKNESS(1)=0.12,
      IGNITION_TEMPERATURE=250,
      HRRPUA=180,
      RAMP_Q='Q_RAMP',
      BURN_AWAY=.FALSE., EXTERNAL_FLUX=140, RAMP_EF='NUCLEAR_RAMP'/
&SURF ID='CURT_R0140',
      RGB=146,26,223,
      TRANSPARENCY=0.886275,
      MATL_ID(1,1)='NLZW',
      MATL_MASS_FRACTION(1,1)=1.0,
      THICKNESS(1)=0.03,
      IGNITION_TEMPERATURE=250,
      HRRPUA=180,
      RAMP_Q='Q_RAMP',
      BURN_AWAY=.FALSE., EXTERNAL_FLUX=140, RAMP_EF='NUCLEAR_RAMP'/
&SURF ID='H2_R0140',
      RGB=204,255,51,
      MATL_ID(1,1)='LHJ6061',
      MATL_MASS_FRACTION(1,1)=1.0,
      THICKNESS(1)=3.0E-3, EXTERNAL_FLUX=140, RAMP_EF='NUCLEAR_RAMP'/
&SURF ID='H4_R0140',
      RGB=204,255,51,
      MATL_ID(1,1)='LHJ6061',
      MATL_MASS_FRACTION(1,1)=1.0,
      THICKNESS(1)=3.0E-3, EXTERNAL_FLUX=140, RAMP_EF='NUCLEAR_RAMP'/
&SURF ID='SEAT_R0140',
      RGB=146,234,117,
      TRANSPARENCY=0.827451,
      MATL_ID(1,1)='JAZPM',
      MATL_MASS_FRACTION(1,1)=1.0,
      THICKNESS(1)=0.15,
      IGNITION_TEMPERATURE=250,
      HRRPUA=200,
      RAMP_Q='Q_RAMP',
      BURN_AWAY=.FALSE., EXTERNAL_FLUX=140, RAMP_EF='NUCLEAR_RAMP'/
&SURF ID='AL2024_R0210',
      RGB=153,153,153,
      TRANSPARENCY=0.54902,
      MATL_ID(1,1)='LHJ2024',
      MATL_MASS_FRACTION(1,1)=1.0,
      THICKNESS(1)=0.002, EXTERNAL_FLUX=210, RAMP_EF='NUCLEAR_RAMP'/
&SURF ID='AL7075_R0210',
      RGB=153,153,0,
      TRANSPARENCY=0.819608,
      MATL_ID(1,1)='LHJ7075',
      MATL_MASS_FRACTION(1,1)=1.0,
      THICKNESS(1)=0.003, EXTERNAL_FLUX=210, RAMP_EF='NUCLEAR_RAMP'/
&SURF ID='BED_R0210',
      RGB=146,26,223,
      TRANSPARENCY=0.886275,
      MATL_ID(1,1)='NLZW',
      MATL_MASS_FRACTION(1,1)=1.0,
      THICKNESS(1)=0.12,
      IGNITION_TEMPERATURE=250,
      HRRPUA=180,
      RAMP_Q='Q_RAMP',
      BURN_AWAY=.FALSE., EXTERNAL_FLUX=210, RAMP_EF='NUCLEAR_RAMP'/
&SURF ID='CURT_R0210',
      RGB=146,26,223,
      TRANSPARENCY=0.886275,
      MATL_ID(1,1)='NLZW',
      MATL_MASS_FRACTION(1,1)=1.0,
      THICKNESS(1)=0.03,
      IGNITION_TEMPERATURE=250,
      HRRPUA=180,
      RAMP_Q='Q_RAMP',
      BURN_AWAY=.FALSE., EXTERNAL_FLUX=210, RAMP_EF='NUCLEAR_RAMP'/
&SURF ID='H2_R0210',
      RGB=204,255,51,
      MATL_ID(1,1)='LHJ6061',
      MATL_MASS_FRACTION(1,1)=1.0,
      THICKNESS(1)=3.0E-3, EXTERNAL_FLUX=210, RAMP_EF='NUCLEAR_RAMP'/
&SURF ID='RADM_R0210',
      RGB=153,153,153,
      TRANSPARENCY=0.729412,
      MATL_ID(1,1)='EBLXW',
      MATL_MASS_FRACTION(1,1)=1.0,
      THICKNESS(1)=0.12,
      HRRPUA=75,
      IGNITION_TEMPERATURE=400, EXTERNAL_FLUX=210, RAMP_EF='NUCLEAR_RAMP'/
&SURF ID='SEAT_R0210',
      RGB=146,234,117,
      TRANSPARENCY=0.827451,
      MATL_ID(1,1)='JAZPM',
      MATL_MASS_FRACTION(1,1)=1.0,
      THICKNESS(1)=0.15,
      IGNITION_TEMPERATURE=250,
      HRRPUA=200,
      RAMP_Q='Q_RAMP',
      BURN_AWAY=.FALSE., EXTERNAL_FLUX=210, RAMP_EF='NUCLEAR_RAMP'/
&SURF ID='WINS_R0210',
      RGB=146,202,166,
      MATL_ID(1,1)='BXSSL',
      MATL_MASS_FRACTION(1,1)=1.0,
      THICKNESS(1)=0.075,
      HRRPUA=250,
      IGNITION_TEMPERATURE=250, EXTERNAL_FLUX=210, RAMP_EF='NUCLEAR_RAMP'/
&SURF ID='BED_R0280',
      RGB=146,26,223,
      TRANSPARENCY=0.886275,
      MATL_ID(1,1)='NLZW',
      MATL_MASS_FRACTION(1,1)=1.0,
      THICKNESS(1)=0.12,
      IGNITION_TEMPERATURE=250,
      HRRPUA=180,
      RAMP_Q='Q_RAMP',
      BURN_AWAY=.FALSE., EXTERNAL_FLUX=280, RAMP_EF='NUCLEAR_RAMP'/
&SURF ID='CURT_R0280',
      RGB=146,26,223,
      TRANSPARENCY=0.886275,
      MATL_ID(1,1)='NLZW',
      MATL_MASS_FRACTION(1,1)=1.0,
      THICKNESS(1)=0.03,
      IGNITION_TEMPERATURE=250,
      HRRPUA=180,
      RAMP_Q='Q_RAMP',
      BURN_AWAY=.FALSE., EXTERNAL_FLUX=280, RAMP_EF='NUCLEAR_RAMP'/
&SURF ID='H4_R0280',
      RGB=204,255,51,
      MATL_ID(1,1)='LHJ6061',
      MATL_MASS_FRACTION(1,1)=1.0,
      THICKNESS(1)=3.0E-3, EXTERNAL_FLUX=280, RAMP_EF='NUCLEAR_RAMP'/
&SURF ID='SEAT_R0280',
      RGB=146,234,117,
      TRANSPARENCY=0.827451,
      MATL_ID(1,1)='JAZPM',
      MATL_MASS_FRACTION(1,1)=1.0,
      THICKNESS(1)=0.15,
      IGNITION_TEMPERATURE=250,
      HRRPUA=200,
      RAMP_Q='Q_RAMP',
      BURN_AWAY=.FALSE., EXTERNAL_FLUX=280, RAMP_EF='NUCLEAR_RAMP'/
&SURF ID='WINS_R0280',
      RGB=146,202,166,
      MATL_ID(1,1)='BXSSL',
      MATL_MASS_FRACTION(1,1)=1.0,
      THICKNESS(1)=0.075,
      HRRPUA=250,
      IGNITION_TEMPERATURE=250, EXTERNAL_FLUX=280, RAMP_EF='NUCLEAR_RAMP'/
&SURF ID='AL2024_R0350',
      RGB=153,153,153,
      TRANSPARENCY=0.54902,
      MATL_ID(1,1)='LHJ2024',
      MATL_MASS_FRACTION(1,1)=1.0,
      THICKNESS(1)=0.002, EXTERNAL_FLUX=350, RAMP_EF='NUCLEAR_RAMP'/
&SURF ID='AL7075_R0350',
      RGB=153,153,0,
      TRANSPARENCY=0.819608,
      MATL_ID(1,1)='LHJ7075',
      MATL_MASS_FRACTION(1,1)=1.0,
      THICKNESS(1)=0.003, EXTERNAL_FLUX=350, RAMP_EF='NUCLEAR_RAMP'/
&SURF ID='BED_R0350',
      RGB=146,26,223,
      TRANSPARENCY=0.886275,
      MATL_ID(1,1)='NLZW',
      MATL_MASS_FRACTION(1,1)=1.0,
      THICKNESS(1)=0.12,
      IGNITION_TEMPERATURE=250,
      HRRPUA=180,
      RAMP_Q='Q_RAMP',
      BURN_AWAY=.FALSE., EXTERNAL_FLUX=350, RAMP_EF='NUCLEAR_RAMP'/
&SURF ID='CURT_R0350',
      RGB=146,26,223,
      TRANSPARENCY=0.886275,
      MATL_ID(1,1)='NLZW',
      MATL_MASS_FRACTION(1,1)=1.0,
      THICKNESS(1)=0.03,
      IGNITION_TEMPERATURE=250,
      HRRPUA=180,
      RAMP_Q='Q_RAMP',
      BURN_AWAY=.FALSE., EXTERNAL_FLUX=350, RAMP_EF='NUCLEAR_RAMP'/
&SURF ID='O2TANK_R0350',
      RGB=0,255,153,
      MATL_ID(1,1)='LHJ7075',
      MATL_MASS_FRACTION(1,1)=1.0,
      THICKNESS(1)=5.0E-3, EXTERNAL_FLUX=350, RAMP_EF='NUCLEAR_RAMP'/
&SURF ID='SEAT_R0350',
      RGB=146,234,117,
      TRANSPARENCY=0.827451,
      MATL_ID(1,1)='JAZPM',
      MATL_MASS_FRACTION(1,1)=1.0,
      THICKNESS(1)=0.15,
      IGNITION_TEMPERATURE=250,
      HRRPUA=200,
      RAMP_Q='Q_RAMP',
      BURN_AWAY=.FALSE., EXTERNAL_FLUX=350, RAMP_EF='NUCLEAR_RAMP'/
&SURF ID='WINS_R0350',
      RGB=146,202,166,
      MATL_ID(1,1)='BXSSL',
      MATL_MASS_FRACTION(1,1)=1.0,
      THICKNESS(1)=0.075,
      HRRPUA=250,
      IGNITION_TEMPERATURE=250, EXTERNAL_FLUX=350, RAMP_EF='NUCLEAR_RAMP'/
&SURF ID='AL2024_R0420',
      RGB=153,153,153,
      TRANSPARENCY=0.54902,
      MATL_ID(1,1)='LHJ2024',
      MATL_MASS_FRACTION(1,1)=1.0,
      THICKNESS(1)=0.002, EXTERNAL_FLUX=420, RAMP_EF='NUCLEAR_RAMP'/
&SURF ID='AL7075_R0420',
      RGB=153,153,0,
      TRANSPARENCY=0.819608,
      MATL_ID(1,1)='LHJ7075',
      MATL_MASS_FRACTION(1,1)=1.0,
      THICKNESS(1)=0.003, EXTERNAL_FLUX=420, RAMP_EF='NUCLEAR_RAMP'/
&SURF ID='BED_R0420',
      RGB=146,26,223,
      TRANSPARENCY=0.886275,
      MATL_ID(1,1)='NLZW',
      MATL_MASS_FRACTION(1,1)=1.0,
      THICKNESS(1)=0.12,
      IGNITION_TEMPERATURE=250,
      HRRPUA=180,
      RAMP_Q='Q_RAMP',
      BURN_AWAY=.FALSE., EXTERNAL_FLUX=420, RAMP_EF='NUCLEAR_RAMP'/
&SURF ID='CURT_R0420',
      RGB=146,26,223,
      TRANSPARENCY=0.886275,
      MATL_ID(1,1)='NLZW',
      MATL_MASS_FRACTION(1,1)=1.0,
      THICKNESS(1)=0.03,
      IGNITION_TEMPERATURE=250,
      HRRPUA=180,
      RAMP_Q='Q_RAMP',
      BURN_AWAY=.FALSE., EXTERNAL_FLUX=420, RAMP_EF='NUCLEAR_RAMP'/
&SURF ID='SEAT_R0420',
      RGB=146,234,117,
      TRANSPARENCY=0.827451,
      MATL_ID(1,1)='JAZPM',
      MATL_MASS_FRACTION(1,1)=1.0,
      THICKNESS(1)=0.15,
      IGNITION_TEMPERATURE=250,
      HRRPUA=200,
      RAMP_Q='Q_RAMP',
      BURN_AWAY=.FALSE., EXTERNAL_FLUX=420, RAMP_EF='NUCLEAR_RAMP'/
&SURF ID='WINS_R0420',
      RGB=146,202,166,
      MATL_ID(1,1)='BXSSL',
      MATL_MASS_FRACTION(1,1)=1.0,
      THICKNESS(1)=0.075,
      HRRPUA=250,
      IGNITION_TEMPERATURE=250, EXTERNAL_FLUX=420, RAMP_EF='NUCLEAR_RAMP'/
&SURF ID='AL2024_R0490',
      RGB=153,153,153,
      TRANSPARENCY=0.54902,
      MATL_ID(1,1)='LHJ2024',
      MATL_MASS_FRACTION(1,1)=1.0,
      THICKNESS(1)=0.002, EXTERNAL_FLUX=490, RAMP_EF='NUCLEAR_RAMP'/
&SURF ID='H1_R0490',
      RGB=204,255,51,
      MATL_ID(1,1)='LHJ6061',
      MATL_MASS_FRACTION(1,1)=1.0,
      THICKNESS(1)=3.0E-3, EXTERNAL_FLUX=490, RAMP_EF='NUCLEAR_RAMP'/
&SURF ID='H2_R0490',
      RGB=204,255,51,
      MATL_ID(1,1)='LHJ6061',
      MATL_MASS_FRACTION(1,1)=1.0,
      THICKNESS(1)=3.0E-3, EXTERNAL_FLUX=490, RAMP_EF='NUCLEAR_RAMP'/
&SURF ID='RADM_R0490',
      RGB=153,153,153,
      TRANSPARENCY=0.729412,
      MATL_ID(1,1)='EBLXW',
      MATL_MASS_FRACTION(1,1)=1.0,
      THICKNESS(1)=0.12,
      HRRPUA=75,
      IGNITION_TEMPERATURE=400, EXTERNAL_FLUX=490, RAMP_EF='NUCLEAR_RAMP'/
&SURF ID='WINS_R0490',
      RGB=146,202,166,
      MATL_ID(1,1)='BXSSL',
      MATL_MASS_FRACTION(1,1)=1.0,
      THICKNESS(1)=0.075,
      HRRPUA=250,
      IGNITION_TEMPERATURE=250, EXTERNAL_FLUX=490, RAMP_EF='NUCLEAR_RAMP'/
&SURF ID='CURT_R0560',
      RGB=146,26,223,
      TRANSPARENCY=0.886275,
      MATL_ID(1,1)='NLZW',
      MATL_MASS_FRACTION(1,1)=1.0,
      THICKNESS(1)=0.03,
      IGNITION_TEMPERATURE=250,
      HRRPUA=180,
      RAMP_Q='Q_RAMP',
      BURN_AWAY=.FALSE., EXTERNAL_FLUX=560, RAMP_EF='NUCLEAR_RAMP'/
&SURF ID='AL7075_R0630',
      RGB=153,153,0,
      TRANSPARENCY=0.819608,
      MATL_ID(1,1)='LHJ7075',
      MATL_MASS_FRACTION(1,1)=1.0,
      THICKNESS(1)=0.003, EXTERNAL_FLUX=630, RAMP_EF='NUCLEAR_RAMP'/
&SURF ID='CURT_R0630',
      RGB=146,26,223,
      TRANSPARENCY=0.886275,
      MATL_ID(1,1)='NLZW',
      MATL_MASS_FRACTION(1,1)=1.0,
      THICKNESS(1)=0.03,
      IGNITION_TEMPERATURE=250,
      HRRPUA=180,
      RAMP_Q='Q_RAMP',
      BURN_AWAY=.FALSE., EXTERNAL_FLUX=630, RAMP_EF='NUCLEAR_RAMP'/
&SURF ID='H5_R0630',
      RGB=204,255,51,
      MATL_ID(1,1)='LHJ6061',
      MATL_MASS_FRACTION(1,1)=1.0,
      THICKNESS(1)=3.0E-3, EXTERNAL_FLUX=630, RAMP_EF='NUCLEAR_RAMP'/
&SURF ID='O2TANK_R0630',
      RGB=0,255,153,
      MATL_ID(1,1)='LHJ7075',
      MATL_MASS_FRACTION(1,1)=1.0,
      THICKNESS(1)=5.0E-3, EXTERNAL_FLUX=630, RAMP_EF='NUCLEAR_RAMP'/
&SURF ID='SEAT_R0630',
      RGB=146,234,117,
      TRANSPARENCY=0.827451,
      MATL_ID(1,1)='JAZPM',
      MATL_MASS_FRACTION(1,1)=1.0,
      THICKNESS(1)=0.15,
      IGNITION_TEMPERATURE=250,
      HRRPUA=200,
      RAMP_Q='Q_RAMP',
      BURN_AWAY=.FALSE., EXTERNAL_FLUX=630, RAMP_EF='NUCLEAR_RAMP'/
&SURF ID='BED_R0700',
      RGB=146,26,223,
      TRANSPARENCY=0.886275,
      MATL_ID(1,1)='NLZW',
      MATL_MASS_FRACTION(1,1)=1.0,
      THICKNESS(1)=0.12,
      IGNITION_TEMPERATURE=250,
      HRRPUA=180,
      RAMP_Q='Q_RAMP',
      BURN_AWAY=.FALSE., EXTERNAL_FLUX=700, RAMP_EF='NUCLEAR_RAMP'/
&SURF ID='CURT_R0700',
      RGB=146,26,223,
      TRANSPARENCY=0.886275,
      MATL_ID(1,1)='NLZW',
      MATL_MASS_FRACTION(1,1)=1.0,
      THICKNESS(1)=0.03,
      IGNITION_TEMPERATURE=250,
      HRRPUA=180,
      RAMP_Q='Q_RAMP',
      BURN_AWAY=.FALSE., EXTERNAL_FLUX=700, RAMP_EF='NUCLEAR_RAMP'/
&SURF ID='SEAT_R0700',
      RGB=146,234,117,
      TRANSPARENCY=0.827451,
      MATL_ID(1,1)='JAZPM',
      MATL_MASS_FRACTION(1,1)=1.0,
      THICKNESS(1)=0.15,
      IGNITION_TEMPERATURE=250,
      HRRPUA=200,
      RAMP_Q='Q_RAMP',
      BURN_AWAY=.FALSE., EXTERNAL_FLUX=700, RAMP_EF='NUCLEAR_RAMP'/
&SURF ID='WINS_R0700',
      RGB=146,202,166,
      MATL_ID(1,1)='BXSSL',
      MATL_MASS_FRACTION(1,1)=1.0,
      THICKNESS(1)=0.075,
      HRRPUA=250,
      IGNITION_TEMPERATURE=250, EXTERNAL_FLUX=700, RAMP_EF='NUCLEAR_RAMP'/
&SURF ID='BED_R0770',
      RGB=146,26,223,
      TRANSPARENCY=0.886275,
      MATL_ID(1,1)='NLZW',
      MATL_MASS_FRACTION(1,1)=1.0,
      THICKNESS(1)=0.12,
      IGNITION_TEMPERATURE=250,
      HRRPUA=180,
      RAMP_Q='Q_RAMP',
      BURN_AWAY=.FALSE., EXTERNAL_FLUX=770, RAMP_EF='NUCLEAR_RAMP'/
&SURF ID='CURT_R0770',
      RGB=146,26,223,
      TRANSPARENCY=0.886275,
      MATL_ID(1,1)='NLZW',
      MATL_MASS_FRACTION(1,1)=1.0,
      THICKNESS(1)=0.03,
      IGNITION_TEMPERATURE=250,
      HRRPUA=180,
      RAMP_Q='Q_RAMP',
      BURN_AWAY=.FALSE., EXTERNAL_FLUX=770, RAMP_EF='NUCLEAR_RAMP'/
&SURF ID='SEAT_R0770',
      RGB=146,234,117,
      TRANSPARENCY=0.827451,
      MATL_ID(1,1)='JAZPM',
      MATL_MASS_FRACTION(1,1)=1.0,
      THICKNESS(1)=0.15,
      IGNITION_TEMPERATURE=250,
      HRRPUA=200,
      RAMP_Q='Q_RAMP',
      BURN_AWAY=.FALSE., EXTERNAL_FLUX=770, RAMP_EF='NUCLEAR_RAMP'/
&SURF ID='WINS_R0770',
      RGB=146,202,166,
      MATL_ID(1,1)='BXSSL',
      MATL_MASS_FRACTION(1,1)=1.0,
      THICKNESS(1)=0.075,
      HRRPUA=250,
      IGNITION_TEMPERATURE=250, EXTERNAL_FLUX=770, RAMP_EF='NUCLEAR_RAMP'/
&SURF ID='AL2024_R0840',
      RGB=153,153,153,
      TRANSPARENCY=0.54902,
      MATL_ID(1,1)='LHJ2024',
      MATL_MASS_FRACTION(1,1)=1.0,
      THICKNESS(1)=0.002, EXTERNAL_FLUX=840, RAMP_EF='NUCLEAR_RAMP'/
&SURF ID='AL7075_R0840',
      RGB=153,153,0,
      TRANSPARENCY=0.819608,
      MATL_ID(1,1)='LHJ7075',
      MATL_MASS_FRACTION(1,1)=1.0,
      THICKNESS(1)=0.003, EXTERNAL_FLUX=840, RAMP_EF='NUCLEAR_RAMP'/
&SURF ID='CURT_R0840',
      RGB=146,26,223,
      TRANSPARENCY=0.886275,
      MATL_ID(1,1)='NLZW',
      MATL_MASS_FRACTION(1,1)=1.0,
      THICKNESS(1)=0.03,
      IGNITION_TEMPERATURE=250,
      HRRPUA=180,
      RAMP_Q='Q_RAMP',
      BURN_AWAY=.FALSE., EXTERNAL_FLUX=840, RAMP_EF='NUCLEAR_RAMP'/
&SURF ID='H2_R0840',
      RGB=204,255,51,
      MATL_ID(1,1)='LHJ6061',
      MATL_MASS_FRACTION(1,1)=1.0,
      THICKNESS(1)=3.0E-3, EXTERNAL_FLUX=840, RAMP_EF='NUCLEAR_RAMP'/
&SURF ID='RADM_R0840',
      RGB=153,153,153,
      TRANSPARENCY=0.729412,
      MATL_ID(1,1)='EBLXW',
      MATL_MASS_FRACTION(1,1)=1.0,
      THICKNESS(1)=0.12,
      HRRPUA=75,
      IGNITION_TEMPERATURE=400, EXTERNAL_FLUX=840, RAMP_EF='NUCLEAR_RAMP'/
&SURF ID='WINS_R0840',
      RGB=146,202,166,
      MATL_ID(1,1)='BXSSL',
      MATL_MASS_FRACTION(1,1)=1.0,
      THICKNESS(1)=0.075,
      HRRPUA=250,
      IGNITION_TEMPERATURE=250, EXTERNAL_FLUX=840, RAMP_EF='NUCLEAR_RAMP'/
&SURF ID='BED_R0909',
      RGB=146,26,223,
      TRANSPARENCY=0.886275,
      MATL_ID(1,1)='NLZW',
      MATL_MASS_FRACTION(1,1)=1.0,
      THICKNESS(1)=0.12,
      IGNITION_TEMPERATURE=250,
      HRRPUA=180,
      RAMP_Q='Q_RAMP',
      BURN_AWAY=.FALSE., EXTERNAL_FLUX=909, RAMP_EF='NUCLEAR_RAMP'/
&SURF ID='CURT_R0979',
      RGB=146,26,223,
      TRANSPARENCY=0.886275,
      MATL_ID(1,1)='NLZW',
      MATL_MASS_FRACTION(1,1)=1.0,
      THICKNESS(1)=0.03,
      IGNITION_TEMPERATURE=250,
      HRRPUA=180,
      RAMP_Q='Q_RAMP',
      BURN_AWAY=.FALSE., EXTERNAL_FLUX=979, RAMP_EF='NUCLEAR_RAMP'/
&SURF ID='SEAT_R0979',
      RGB=146,234,117,
      TRANSPARENCY=0.827451,
      MATL_ID(1,1)='JAZPM',
      MATL_MASS_FRACTION(1,1)=1.0,
      THICKNESS(1)=0.15,
      IGNITION_TEMPERATURE=250,
      HRRPUA=200,
      RAMP_Q='Q_RAMP',
      BURN_AWAY=.FALSE., EXTERNAL_FLUX=979, RAMP_EF='NUCLEAR_RAMP'/
&SURF ID='BED_R1049',
      RGB=146,26,223,
      TRANSPARENCY=0.886275,
      MATL_ID(1,1)='NLZW',
      MATL_MASS_FRACTION(1,1)=1.0,
      THICKNESS(1)=0.12,
      IGNITION_TEMPERATURE=250,
      HRRPUA=180,
      RAMP_Q='Q_RAMP',
      BURN_AWAY=.FALSE., EXTERNAL_FLUX=1049, RAMP_EF='NUCLEAR_RAMP'/
&SURF ID='CURT_R1049',
      RGB=146,26,223,
      TRANSPARENCY=0.886275,
      MATL_ID(1,1)='NLZW',
      MATL_MASS_FRACTION(1,1)=1.0,
      THICKNESS(1)=0.03,
      IGNITION_TEMPERATURE=250,
      HRRPUA=180,
      RAMP_Q='Q_RAMP',
      BURN_AWAY=.FALSE., EXTERNAL_FLUX=1049, RAMP_EF='NUCLEAR_RAMP'/
&SURF ID='O2TANK_R1049',
      RGB=0,255,153,
      MATL_ID(1,1)='LHJ7075',
      MATL_MASS_FRACTION(1,1)=1.0,
      THICKNESS(1)=5.0E-3, EXTERNAL_FLUX=1049, RAMP_EF='NUCLEAR_RAMP'/
&SURF ID='CURT_R1119',
      RGB=146,26,223,
      TRANSPARENCY=0.886275,
      MATL_ID(1,1)='NLZW',
      MATL_MASS_FRACTION(1,1)=1.0,
      THICKNESS(1)=0.03,
      IGNITION_TEMPERATURE=250,
      HRRPUA=180,
      RAMP_Q='Q_RAMP',
      BURN_AWAY=.FALSE., EXTERNAL_FLUX=1119, RAMP_EF='NUCLEAR_RAMP'/
&SURF ID='O2TANK_R1119',
      RGB=0,255,153,
      MATL_ID(1,1)='LHJ7075',
      MATL_MASS_FRACTION(1,1)=1.0,
      THICKNESS(1)=5.0E-3, EXTERNAL_FLUX=1119, RAMP_EF='NUCLEAR_RAMP'/
&SURF ID='SEAT_R1119',
      RGB=146,234,117,
      TRANSPARENCY=0.827451,
      MATL_ID(1,1)='JAZPM',
      MATL_MASS_FRACTION(1,1)=1.0,
      THICKNESS(1)=0.15,
      IGNITION_TEMPERATURE=250,
      HRRPUA=200,
      RAMP_Q='Q_RAMP',
      BURN_AWAY=.FALSE., EXTERNAL_FLUX=1119, RAMP_EF='NUCLEAR_RAMP'/
&SURF ID='WINS_R1119',
      RGB=146,202,166,
      MATL_ID(1,1)='BXSSL',
      MATL_MASS_FRACTION(1,1)=1.0,
      THICKNESS(1)=0.075,
      HRRPUA=250,
      IGNITION_TEMPERATURE=250, EXTERNAL_FLUX=1119, RAMP_EF='NUCLEAR_RAMP'/
&SURF ID='CURT_R1189',
      RGB=146,26,223,
      TRANSPARENCY=0.886275,
      MATL_ID(1,1)='NLZW',
      MATL_MASS_FRACTION(1,1)=1.0,
      THICKNESS(1)=0.03,
      IGNITION_TEMPERATURE=250,
      HRRPUA=180,
      RAMP_Q='Q_RAMP',
      BURN_AWAY=.FALSE., EXTERNAL_FLUX=1189, RAMP_EF='NUCLEAR_RAMP'/
&SURF ID='SEAT_R1189',
      RGB=146,234,117,
      TRANSPARENCY=0.827451,
      MATL_ID(1,1)='JAZPM',
      MATL_MASS_FRACTION(1,1)=1.0,
      THICKNESS(1)=0.15,
      IGNITION_TEMPERATURE=250,
      HRRPUA=200,
      RAMP_Q='Q_RAMP',
      BURN_AWAY=.FALSE., EXTERNAL_FLUX=1189, RAMP_EF='NUCLEAR_RAMP'/
&SURF ID='WINS_R1189',
      RGB=146,202,166,
      MATL_ID(1,1)='BXSSL',
      MATL_MASS_FRACTION(1,1)=1.0,
      THICKNESS(1)=0.075,
      HRRPUA=250,
      IGNITION_TEMPERATURE=250, EXTERNAL_FLUX=1189, RAMP_EF='NUCLEAR_RAMP'/
&SURF ID='CURT_R1259',
      RGB=146,26,223,
      TRANSPARENCY=0.886275,
      MATL_ID(1,1)='NLZW',
      MATL_MASS_FRACTION(1,1)=1.0,
      THICKNESS(1)=0.03,
      IGNITION_TEMPERATURE=250,
      HRRPUA=180,
      RAMP_Q='Q_RAMP',
      BURN_AWAY=.FALSE., EXTERNAL_FLUX=1259, RAMP_EF='NUCLEAR_RAMP'/
&SURF ID='O2TANK_R1259',
      RGB=0,255,153,
      MATL_ID(1,1)='LHJ7075',
      MATL_MASS_FRACTION(1,1)=1.0,
      THICKNESS(1)=5.0E-3, EXTERNAL_FLUX=1259, RAMP_EF='NUCLEAR_RAMP'/
&SURF ID='SEAT_R1259',
      RGB=146,234,117,
      TRANSPARENCY=0.827451,
      MATL_ID(1,1)='JAZPM',
      MATL_MASS_FRACTION(1,1)=1.0,
      THICKNESS(1)=0.15,
      IGNITION_TEMPERATURE=250,
      HRRPUA=200,
      RAMP_Q='Q_RAMP',
      BURN_AWAY=.FALSE., EXTERNAL_FLUX=1259, RAMP_EF='NUCLEAR_RAMP'/
&SURF ID='AL2024_R1329',
      RGB=153,153,153,
      TRANSPARENCY=0.54902,
      MATL_ID(1,1)='LHJ2024',
      MATL_MASS_FRACTION(1,1)=1.0,
      THICKNESS(1)=0.002, EXTERNAL_FLUX=1329, RAMP_EF='NUCLEAR_RAMP'/
&SURF ID='AL7075_R1329',
      RGB=153,153,0,
      TRANSPARENCY=0.819608,
      MATL_ID(1,1)='LHJ7075',
      MATL_MASS_FRACTION(1,1)=1.0,
      THICKNESS(1)=0.003, EXTERNAL_FLUX=1329, RAMP_EF='NUCLEAR_RAMP'/
&SURF ID='CURT_R1329',
      RGB=146,26,223,
      TRANSPARENCY=0.886275,
      MATL_ID(1,1)='NLZW',
      MATL_MASS_FRACTION(1,1)=1.0,
      THICKNESS(1)=0.03,
      IGNITION_TEMPERATURE=250,
      HRRPUA=180,
      RAMP_Q='Q_RAMP',
      BURN_AWAY=.FALSE., EXTERNAL_FLUX=1329, RAMP_EF='NUCLEAR_RAMP'/
&SURF ID='RADM_R1329',
      RGB=153,153,153,
      TRANSPARENCY=0.729412,
      MATL_ID(1,1)='EBLXW',
      MATL_MASS_FRACTION(1,1)=1.0,
      THICKNESS(1)=0.12,
      HRRPUA=75,
      IGNITION_TEMPERATURE=400, EXTERNAL_FLUX=1329, RAMP_EF='NUCLEAR_RAMP'/
&SURF ID='SEAT_R1329',
      RGB=146,234,117,
      TRANSPARENCY=0.827451,
      MATL_ID(1,1)='JAZPM',
      MATL_MASS_FRACTION(1,1)=1.0,
      THICKNESS(1)=0.15,
      IGNITION_TEMPERATURE=250,
      HRRPUA=200,
      RAMP_Q='Q_RAMP',
      BURN_AWAY=.FALSE., EXTERNAL_FLUX=1329, RAMP_EF='NUCLEAR_RAMP'/
&SURF ID='WINS_R1329',
      RGB=146,202,166,
      MATL_ID(1,1)='BXSSL',
      MATL_MASS_FRACTION(1,1)=1.0,
      THICKNESS(1)=0.075,
      HRRPUA=250,
      IGNITION_TEMPERATURE=250, EXTERNAL_FLUX=1329, RAMP_EF='NUCLEAR_RAMP'/
&SURF ID='AL2024_R1399',
      RGB=153,153,153,
      TRANSPARENCY=0.54902,
      MATL_ID(1,1)='LHJ2024',
      MATL_MASS_FRACTION(1,1)=1.0,
      THICKNESS(1)=0.002, EXTERNAL_FLUX=1399, RAMP_EF='NUCLEAR_RAMP'/
&SURF ID='CURT_R1399',
      RGB=146,26,223,
      TRANSPARENCY=0.886275,
      MATL_ID(1,1)='NLZW',
      MATL_MASS_FRACTION(1,1)=1.0,
      THICKNESS(1)=0.03,
      IGNITION_TEMPERATURE=250,
      HRRPUA=180,
      RAMP_Q='Q_RAMP',
      BURN_AWAY=.FALSE., EXTERNAL_FLUX=1399, RAMP_EF='NUCLEAR_RAMP'/
&SURF ID='SEAT_R1399',
      RGB=146,234,117,
      TRANSPARENCY=0.827451,
      MATL_ID(1,1)='JAZPM',
      MATL_MASS_FRACTION(1,1)=1.0,
      THICKNESS(1)=0.15,
      IGNITION_TEMPERATURE=250,
      HRRPUA=200,
      RAMP_Q='Q_RAMP',
      BURN_AWAY=.FALSE., EXTERNAL_FLUX=1399, RAMP_EF='NUCLEAR_RAMP'/
&SURF ID='WINS_R1399',
      RGB=146,202,166,
      MATL_ID(1,1)='BXSSL',
      MATL_MASS_FRACTION(1,1)=1.0,
      THICKNESS(1)=0.075,
      HRRPUA=250,
      IGNITION_TEMPERATURE=250, EXTERNAL_FLUX=1399, RAMP_EF='NUCLEAR_RAMP'/
&SURF ID='CURT_R1469',
      RGB=146,26,223,
      TRANSPARENCY=0.886275,
      MATL_ID(1,1)='NLZW',
      MATL_MASS_FRACTION(1,1)=1.0,
      THICKNESS(1)=0.03,
      IGNITION_TEMPERATURE=250,
      HRRPUA=180,
      RAMP_Q='Q_RAMP',
      BURN_AWAY=.FALSE., EXTERNAL_FLUX=1469, RAMP_EF='NUCLEAR_RAMP'/
&SURF ID='H5_R1469',
      RGB=204,255,51,
      MATL_ID(1,1)='LHJ6061',
      MATL_MASS_FRACTION(1,1)=1.0,
      THICKNESS(1)=3.0E-3, EXTERNAL_FLUX=1469, RAMP_EF='NUCLEAR_RAMP'/
&SURF ID='SEAT_R1469',
      RGB=146,234,117,
      TRANSPARENCY=0.827451,
      MATL_ID(1,1)='JAZPM',
      MATL_MASS_FRACTION(1,1)=1.0,
      THICKNESS(1)=0.15,
      IGNITION_TEMPERATURE=250,
      HRRPUA=200,
      RAMP_Q='Q_RAMP',
      BURN_AWAY=.FALSE., EXTERNAL_FLUX=1469, RAMP_EF='NUCLEAR_RAMP'/
&SURF ID='AL2024_R1539',
      RGB=153,153,153,
      TRANSPARENCY=0.54902,
      MATL_ID(1,1)='LHJ2024',
      MATL_MASS_FRACTION(1,1)=1.0,
      THICKNESS(1)=0.002, EXTERNAL_FLUX=1539, RAMP_EF='NUCLEAR_RAMP'/
&SURF ID='WINS_R1539',
      RGB=146,202,166,
      MATL_ID(1,1)='BXSSL',
      MATL_MASS_FRACTION(1,1)=1.0,
      THICKNESS(1)=0.075,
      HRRPUA=250,
      IGNITION_TEMPERATURE=250, EXTERNAL_FLUX=1539, RAMP_EF='NUCLEAR_RAMP'/
&SURF ID='AL2024_R1609',
      RGB=153,153,153,
      TRANSPARENCY=0.54902,
      MATL_ID(1,1)='LHJ2024',
      MATL_MASS_FRACTION(1,1)=1.0,
      THICKNESS(1)=0.002, EXTERNAL_FLUX=1609, RAMP_EF='NUCLEAR_RAMP'/
&SURF ID='WINS_R1609',
      RGB=146,202,166,
      MATL_ID(1,1)='BXSSL',
      MATL_MASS_FRACTION(1,1)=1.0,
      THICKNESS(1)=0.075,
      HRRPUA=250,
      IGNITION_TEMPERATURE=250, EXTERNAL_FLUX=1609, RAMP_EF='NUCLEAR_RAMP'/
&SURF ID='AL2024_R1749',
      RGB=153,153,153,
      TRANSPARENCY=0.54902,
      MATL_ID(1,1)='LHJ2024',
      MATL_MASS_FRACTION(1,1)=1.0,
      THICKNESS(1)=0.002, EXTERNAL_FLUX=1749, RAMP_EF='NUCLEAR_RAMP'/
&SURF ID='AL7075_R1749',
      RGB=153,153,0,
      TRANSPARENCY=0.819608,
      MATL_ID(1,1)='LHJ7075',
      MATL_MASS_FRACTION(1,1)=1.0,
      THICKNESS(1)=0.003, EXTERNAL_FLUX=1749, RAMP_EF='NUCLEAR_RAMP'/
&SURF ID='H1_R1749',
      RGB=204,255,51,
      MATL_ID(1,1)='LHJ6061',
      MATL_MASS_FRACTION(1,1)=1.0,
      THICKNESS(1)=3.0E-3, EXTERNAL_FLUX=1749, RAMP_EF='NUCLEAR_RAMP'/
&SURF ID='H2_R1749',
      RGB=204,255,51,
      MATL_ID(1,1)='LHJ6061',
      MATL_MASS_FRACTION(1,1)=1.0,
      THICKNESS(1)=3.0E-3, EXTERNAL_FLUX=1749, RAMP_EF='NUCLEAR_RAMP'/
&SURF ID='RADM_R1749',
      RGB=153,153,153,
      TRANSPARENCY=0.729412,
      MATL_ID(1,1)='EBLXW',
      MATL_MASS_FRACTION(1,1)=1.0,
      THICKNESS(1)=0.12,
      HRRPUA=75,
      IGNITION_TEMPERATURE=400, EXTERNAL_FLUX=1749, RAMP_EF='NUCLEAR_RAMP'/
! Voxel illuminated face overlays
&VENT ID='VF00000', XB=0.000000,0.100000,-0.100000,0.100000,-0.200000,-0.200000, IOR=3, SURF_ID='RADM_R0490' /
&VENT ID='VF00001', XB=0.000000,0.100000,-0.100000,0.100000,0.200000,0.200000, IOR=3, SURF_ID='RADM_R0490' /
&VENT ID='VF00002', XB=0.100000,0.200000,-0.100000,0.100000,-0.300000,-0.300000, IOR=3, SURF_ID='RADM_R0490' /
&VENT ID='VF00003', XB=0.100000,0.200000,-0.200000,-0.100000,-0.200000,-0.200000, IOR=3, SURF_ID='RADM_R0490' /
&VENT ID='VF00004', XB=0.100000,0.200000,0.100000,0.200000,-0.200000,-0.200000, IOR=3, SURF_ID='RADM_R0490' /
&VENT ID='VF00005', XB=0.100000,0.200000,-0.200000,-0.100000,0.200000,0.200000, IOR=3, SURF_ID='RADM_R0490' /
&VENT ID='VF00006', XB=0.100000,0.200000,0.100000,0.200000,0.200000,0.200000, IOR=3, SURF_ID='RADM_R0490' /
&VENT ID='VF00007', XB=0.100000,0.200000,-0.100000,0.100000,0.300000,0.300000, IOR=3, SURF_ID='RADM_R0490' /
&VENT ID='VF00008', XB=0.200000,0.300000,-0.200000,-0.100000,-0.300000,-0.300000, IOR=3, SURF_ID='RADM_R0490' /
&VENT ID='VF00009', XB=0.200000,0.300000,0.100000,0.200000,-0.300000,-0.300000, IOR=3, SURF_ID='RADM_R0490' /
&VENT ID='VF00010', XB=0.200000,0.300000,-0.300000,-0.200000,-0.200000,-0.200000, IOR=3, SURF_ID='RADM_R0490' /
&VENT ID='VF00011', XB=0.200000,0.300000,0.200000,0.300000,-0.200000,-0.200000, IOR=3, SURF_ID='RADM_R0490' /
&VENT ID='VF00012', XB=0.200000,0.300000,-0.300000,-0.200000,0.200000,0.200000, IOR=3, SURF_ID='RADM_R0490' /
&VENT ID='VF00013', XB=0.200000,0.300000,0.200000,0.300000,0.200000,0.200000, IOR=3, SURF_ID='RADM_R0490' /
&VENT ID='VF00014', XB=0.200000,0.300000,-0.200000,-0.100000,0.300000,0.300000, IOR=3, SURF_ID='RADM_R0490' /
&VENT ID='VF00015', XB=0.200000,0.300000,0.100000,0.200000,0.300000,0.300000, IOR=3, SURF_ID='RADM_R0490' /
&VENT ID='VF00016', XB=0.200000,0.400000,-0.100000,0.100000,-0.400000,-0.400000, IOR=3, SURF_ID='RADM_R0490' /
&VENT ID='VF00017', XB=0.200000,0.400000,-0.100000,0.100000,0.400000,0.400000, IOR=3, SURF_ID='RADM_R0490' /
&VENT ID='VF00018', XB=0.300000,0.400000,-0.200000,-0.100000,-0.400000,-0.400000, IOR=3, SURF_ID='RADM_R0490' /
&VENT ID='VF00019', XB=0.300000,0.400000,0.100000,0.200000,-0.400000,-0.400000, IOR=3, SURF_ID='RADM_R0490' /
! ... 366 like lines cut
&VENT ID='VF00386', XB=1.400000,1.500000,-0.300000,-0.200000,-0.900000,-0.900000, IOR=3, SURF_ID='AL2024_R0210' /
&VENT ID='VF00387', XB=1.400000,1.500000,0.200000,0.300000,-0.900000,-0.900000, IOR=3, SURF_ID='AL2024_R0210' /
&VENT ID='VF00388', XB=1.400000,1.500000,-0.500000,-0.400000,-0.800000,-0.800000, IOR=3, SURF_ID='AL2024_R0210' /
&VENT ID='VF00389', XB=1.400000,1.500000,0.400000,0.500000,-0.800000,-0.800000, IOR=3, SURF_ID='AL2024_R0210' /
&VENT ID='VF00390', XB=1.400000,1.500000,-0.600000,-0.500000,-0.700000,-0.700000, IOR=3, SURF_ID='AL2024_R0210' /
&VENT ID='VF00391', XB=1.400000,1.500000,0.500000,0.600000,-0.700000,-0.700000, IOR=3, SURF_ID='AL2024_R0210' /
&VENT ID='VF00392', XB=1.400000,1.500000,-0.700000,-0.600000,-0.600000,-0.600000, IOR=3, SURF_ID='AL2024_R0210' /
&VENT ID='VF00393', XB=1.400000,1.500000,0.600000,0.700000,-0.600000,-0.600000, IOR=3, SURF_ID='AL2024_R0210' /
&VENT ID='VF00394', XB=1.400000,1.500000,-0.900000,-0.800000,-0.300000,-0.300000, IOR=3, SURF_ID='AL2024_R0210' /
&VENT ID='VF00395', XB=1.400000,1.500000,0.800000,0.900000,-0.300000,-0.300000, IOR=3, SURF_ID='AL2024_R0210' /
&VENT ID='VF00396', XB=1.400000,1.500000,-0.900000,-0.800000,0.500000,0.500000, IOR=3, SURF_ID='AL2024_R0210' /
&VENT ID='VF00397', XB=1.400000,1.500000,0.800000,0.900000,0.500000,0.500000, IOR=3, SURF_ID='AL2024_R0210' /
&VENT ID='VF00398', XB=1.400000,1.500000,-0.600000,-0.500000,0.800000,0.800000, IOR=3, SURF_ID='AL2024_R0210' /
&VENT ID='VF00399', XB=1.400000,1.500000,0.500000,0.600000,0.800000,0.800000, IOR=3, SURF_ID='AL2024_R0210' /
&VENT ID='VF00400', XB=1.400000,1.500000,-0.500000,-0.300000,0.900000,0.900000, IOR=3, SURF_ID='AL2024_R0210' /
&VENT ID='VF00401', XB=1.400000,1.500000,0.300000,0.500000,0.900000,0.900000, IOR=3, SURF_ID='AL2024_R0210' /
&VENT ID='VF00402', XB=1.400000,1.466667,-0.100000,0.100000,-1.000000,-1.000000, IOR=3, SURF_ID='AL2024_R0490' /
&VENT ID='VF00404', XB=1.400000,1.466667,-0.400000,-0.300000,-0.900000,-0.900000, IOR=3, SURF_ID='AL2024_R0490' /
&VENT ID='VF00406', XB=1.400000,1.466667,0.300000,0.400000,-0.900000,-0.900000, IOR=3, SURF_ID='AL2024_R0490' /
&VENT ID='VF00408', XB=1.400000,1.466667,-0.800000,-0.700000,-0.500000,-0.500000, IOR=3, SURF_ID='AL2024_R0490' /
! ... 654 like lines cut
&VENT ID='VF02019', XB=1.700000,1.800000,-0.400000,-0.300000,1.100000,1.100000, IOR=3, SURF_ID='WINS_R0210' /
&VENT ID='VF02020', XB=1.700000,1.800000,0.300000,0.400000,1.100000,1.100000, IOR=3, SURF_ID='WINS_R0420' /
&VENT ID='VF02021', XB=1.700000,1.800000,-0.300000,0.300000,1.200000,1.200000, IOR=3, SURF_ID='WINS_R0420' /
&VENT ID='VF02022', XB=1.800000,1.900000,-0.300000,0.200000,1.200000,1.200000, IOR=3, SURF_ID='WINS_R0420' /
&VENT ID='VF02023', XB=1.800000,1.900000,0.200000,0.300000,1.200000,1.200000, IOR=3, SURF_ID='WINS_R0350' /
&VENT ID='VF02024', XB=1.800000,1.900000,-0.400000,-0.300000,1.200000,1.200000, IOR=3, SURF_ID='WINS_R0420' /
&VENT ID='VF02025', XB=1.800000,1.900000,0.300000,0.400000,1.200000,1.200000, IOR=3, SURF_ID='WINS_R0420' /
&VENT ID='VF02026', XB=1.900000,2.000000,-0.300000,0.300000,1.300000,1.300000, IOR=3, SURF_ID='WINS_R0420' /
&VENT ID='VF02027', XB=1.900000,2.100000,-0.500000,-0.400000,1.200000,1.200000, IOR=3, SURF_ID='WINS_R0420' /
&VENT ID='VF02028', XB=1.900000,1.966667,0.400000,0.500000,1.200000,1.200000, IOR=3, SURF_ID='WINS_R0420' /
&VENT ID='VF02029', XB=1.966667,2.100000,0.400000,0.500000,1.200000,1.200000, IOR=3, SURF_ID='WINS_R0350' /
&VENT ID='VF02030', XB=1.900000,1.966667,-0.400000,-0.300000,1.300000,1.300000, IOR=3, SURF_ID='WINS_R0420' /
&VENT ID='VF02031', XB=1.966667,2.033333,-0.400000,-0.300000,1.300000,1.300000, IOR=3, SURF_ID='WINS_R0280' /
&VENT ID='VF02032', XB=2.033333,2.100000,-0.400000,-0.300000,1.300000,1.300000, IOR=3, SURF_ID='WINS_R0210' /
&VENT ID='VF02033', XB=1.900000,2.100000,0.300000,0.400000,1.300000,1.300000, IOR=3, SURF_ID='WINS_R0420' /
&VENT ID='VF02034', XB=2.000000,2.100000,-0.200000,0.200000,1.400000,1.400000, IOR=3, SURF_ID='WINS_R0420' /
&VENT ID='VF02035', XB=2.000000,2.200000,-0.600000,-0.500000,1.200000,1.200000, IOR=3, SURF_ID='WINS_R0350' /
&VENT ID='VF02036', XB=2.000000,2.200000,0.500000,0.600000,1.200000,1.200000, IOR=3, SURF_ID='WINS_R0420' /
&VENT ID='VF02039', XB=2.100000,2.200000,-0.500000,-0.400000,1.300000,1.300000, IOR=3, SURF_ID='WINS_R0420' /
&VENT ID='VF02040', XB=2.100000,2.200000,0.400000,0.500000,1.300000,1.300000, IOR=3, SURF_ID='WINS_R0420' /
! ... 193 like lines cut
&VENT ID='VF02247', XB=1.600000,1.700000,-0.900000,-0.600000,0.000000,0.000000, IOR=3, SURF_ID='AL7075_R0210' /
&VENT ID='VF02248', XB=1.600000,1.700000,-0.600000,-0.500000,0.000000,0.000000, IOR=3, SURF_ID='AL7075_R0140' /
&VENT ID='VF02250', XB=1.600000,1.700000,0.400000,0.800000,0.000000,0.000000, IOR=3, SURF_ID='AL7075_R0210' /
&VENT ID='VF02251', XB=1.600000,1.700000,0.800000,0.900000,0.000000,0.000000, IOR=3, SURF_ID='AL7075_R0140' /
&VENT ID='VF02256', XB=1.600000,1.700000,-0.900000,-0.600000,0.100000,0.100000, IOR=3, SURF_ID='AL7075_R0210' /
&VENT ID='VF02257', XB=1.600000,1.700000,-0.600000,-0.500000,0.100000,0.100000, IOR=3, SURF_ID='AL7075_R0140' /
&VENT ID='VF02261', XB=1.600000,1.700000,0.400000,0.800000,0.100000,0.100000, IOR=3, SURF_ID='AL7075_R0210' /
&VENT ID='VF02262', XB=1.600000,1.700000,0.800000,0.900000,0.100000,0.100000, IOR=3, SURF_ID='AL7075_R0140' /
&VENT ID='VF02265', XB=1.800000,1.900000,-1.100000,-1.000000,0.000000,0.000000, IOR=3, SURF_ID='AL7075_R0140' /
&VENT ID='VF02267', XB=1.800000,1.900000,1.000000,1.100000,0.000000,0.000000, IOR=3, SURF_ID='AL7075_R0210' /
&VENT ID='VF02269', XB=1.800000,1.900000,-1.100000,-1.000000,0.100000,0.100000, IOR=3, SURF_ID='AL7075_R0140' /
&VENT ID='VF02271', XB=1.800000,1.900000,1.000000,1.100000,0.100000,0.100000, IOR=3, SURF_ID='AL7075_R0210' /
&VENT ID='VF02285', XB=3.600000,3.700000,-1.500000,-1.400000,0.000000,0.000000, IOR=3, SURF_ID='AL7075_R0210' /
&VENT ID='VF02287', XB=3.600000,3.700000,1.400000,1.500000,0.000000,0.000000, IOR=3, SURF_ID='AL7075_R0210' /
&VENT ID='VF02289', XB=3.600000,3.700000,-1.500000,-1.400000,0.100000,0.100000, IOR=3, SURF_ID='AL7075_R0210' /
&VENT ID='VF02291', XB=3.600000,3.700000,1.400000,1.500000,0.100000,0.100000, IOR=3, SURF_ID='AL7075_R0210' /
&VENT ID='VF02317', XB=6.900000,7.000000,-0.200000,0.200000,0.100000,0.100000, IOR=3, SURF_ID='AL7075_R0140' /
&VENT ID='VF02321', XB=1.600000,1.600000,-1.000000,-0.900000,0.300000,0.400000, IOR=-1, SURF_ID='AL7075_R0420' /
&VENT ID='VF02323', XB=1.600000,1.600000,0.900000,1.000000,0.300000,0.400000, IOR=-1, SURF_ID='AL7075_R0840' /
&VENT ID='VF02324', XB=1.600000,1.600000,-0.900000,-0.800000,0.000000,0.400000, IOR=-1, SURF_ID='AL7075_R1749' /
! ... 101 like lines cut
&VENT ID='VF02596', XB=2.000000,2.100000,-0.100000,0.100000,1.100000,1.100000, IOR=3, SURF_ID='CURT_R0420' /
&VENT ID='VF02597', XB=2.000000,2.066667,-0.200000,-0.100000,1.100000,1.100000, IOR=3, SURF_ID='CURT_R0420' /
&VENT ID='VF02598', XB=2.066667,2.133333,-0.200000,-0.100000,1.100000,1.100000, IOR=3, SURF_ID='CURT_R0350' /
&VENT ID='VF02599', XB=2.133333,2.200000,-0.200000,-0.100000,1.100000,1.100000, IOR=3, SURF_ID='CURT_R0420' /
&VENT ID='VF02600', XB=2.000000,2.066667,0.100000,0.200000,1.100000,1.100000, IOR=3, SURF_ID='CURT_R0420' /
&VENT ID='VF02601', XB=2.066667,2.133333,0.100000,0.200000,1.100000,1.100000, IOR=3, SURF_ID='CURT_R0350' /
&VENT ID='VF02602', XB=2.133333,2.200000,0.100000,0.200000,1.100000,1.100000, IOR=3, SURF_ID='CURT_R0420' /
&VENT ID='VF02605', XB=2.100000,2.200000,-0.300000,-0.200000,1.100000,1.100000, IOR=3, SURF_ID='CURT_R0420' /
&VENT ID='VF02606', XB=2.100000,2.200000,0.200000,0.300000,1.100000,1.100000, IOR=3, SURF_ID='CURT_R0210' /
&VENT ID='VF02607', XB=2.100000,2.200000,-0.100000,0.100000,1.200000,1.200000, IOR=3, SURF_ID='CURT_R0420' /
&VENT ID='VF02610', XB=2.200000,2.300000,-0.400000,-0.300000,1.100000,1.100000, IOR=3, SURF_ID='CURT_R0280' /
&VENT ID='VF02611', XB=2.200000,2.300000,0.300000,0.400000,1.100000,1.100000, IOR=3, SURF_ID='CURT_R0280' /
&VENT ID='VF02612', XB=2.200000,2.300000,-0.300000,-0.100000,1.200000,1.200000, IOR=3, SURF_ID='CURT_R0350' /
&VENT ID='VF02613', XB=2.200000,2.300000,0.100000,0.300000,1.200000,1.200000, IOR=3, SURF_ID='CURT_R0350' /
&VENT ID='VF02614', XB=2.200000,2.300000,-0.100000,0.100000,1.300000,1.300000, IOR=3, SURF_ID='CURT_R0420' /
&VENT ID='VF02617', XB=2.300000,2.400000,-0.500000,-0.400000,1.100000,1.100000, IOR=3, SURF_ID='CURT_R0420' /
&VENT ID='VF02618', XB=2.300000,2.400000,0.400000,0.500000,1.100000,1.100000, IOR=3, SURF_ID='CURT_R0350' /
&VENT ID='VF02619', XB=2.300000,2.400000,-0.400000,-0.300000,1.200000,1.200000, IOR=3, SURF_ID='CURT_R0140' /
&VENT ID='VF02620', XB=2.300000,2.400000,0.300000,0.400000,1.200000,1.200000, IOR=3, SURF_ID='CURT_R0350' /
&VENT ID='VF02622', XB=2.300000,2.400000,-0.200000,-0.100000,1.300000,1.300000, IOR=3, SURF_ID='CURT_R0350' /
! ... 247 like lines cut
&VENT ID='VF02951', XB=7.700000,7.700000,-1.000000,-0.900000,0.100000,0.200000, IOR=-1, SURF_ID='O2TANK_R0630' /
&VENT ID='VF02952', XB=7.700000,7.700000,-1.000000,-0.900000,0.200000,0.300000, IOR=-1, SURF_ID='O2TANK_R1049' /
&VENT ID='VF02953', XB=7.700000,7.700000,-1.000000,-0.900000,0.300000,0.400000, IOR=-1, SURF_ID='O2TANK_R1259' /
&VENT ID='VF02954', XB=7.700000,7.700000,-1.000000,-0.900000,0.400000,0.500000, IOR=-1, SURF_ID='O2TANK_R1119' /
&VENT ID='VF02955', XB=7.700000,7.800000,-1.000000,-0.900000,0.500000,0.500000, IOR=3, SURF_ID='O2TANK_R0350' /
&VENT ID='VF02956', XB=7.700000,7.700000,0.900000,1.000000,0.100000,0.200000, IOR=-1, SURF_ID='O2TANK_R0630' /
&VENT ID='VF02957', XB=7.700000,7.700000,0.900000,1.000000,0.200000,0.300000, IOR=-1, SURF_ID='O2TANK_R1119' /
&VENT ID='VF02958', XB=7.700000,7.700000,0.900000,1.000000,0.300000,0.400000, IOR=-1, SURF_ID='O2TANK_R1259' /
&VENT ID='VF02959', XB=7.700000,7.700000,0.900000,1.000000,0.400000,0.500000, IOR=-1, SURF_ID='O2TANK_R1119' /
&VENT ID='VF02960', XB=7.700000,7.800000,0.900000,1.000000,0.500000,0.500000, IOR=3, SURF_ID='O2TANK_R0350' /
&VENT ID='VF02963', XB=5.000000,5.000000,-1.128571,-1.042857,0.600000,0.700000, IOR=-1, SURF_ID='BED_R0770' /
&VENT ID='VF02964', XB=5.000000,5.000000,-1.042857,-0.957143,0.500000,0.600000, IOR=-1, SURF_ID='BED_R0700' /
&VENT ID='VF02965', XB=5.000000,5.000000,-1.042857,-0.957143,0.600000,0.700000, IOR=-1, SURF_ID='BED_R1049' /
&VENT ID='VF02966', XB=5.000000,5.000000,-0.957143,-0.871429,0.500000,0.600000, IOR=-1, SURF_ID='BED_R0909' /
&VENT ID='VF02967', XB=5.000000,5.000000,-0.957143,-0.871429,0.600000,0.700000, IOR=-1, SURF_ID='BED_R0770' /
&VENT ID='VF02970', XB=5.000000,5.100000,-1.214286,-1.128571,0.700000,0.700000, IOR=3, SURF_ID='BED_R0420' /
&VENT ID='VF02971', XB=5.000000,5.100000,-1.128571,-0.957143,0.700000,0.700000, IOR=3, SURF_ID='BED_R0280' /
&VENT ID='VF02972', XB=5.000000,5.100000,-0.957143,-0.871429,0.700000,0.700000, IOR=3, SURF_ID='BED_R0210' /
&VENT ID='VF02975', XB=5.100000,5.200000,-1.214286,-1.128571,0.700000,0.700000, IOR=3, SURF_ID='BED_R0350' /
&VENT ID='VF02976', XB=5.100000,5.200000,-1.128571,-0.957143,0.700000,0.700000, IOR=3, SURF_ID='BED_R0280' /
&VENT ID='VF02977', XB=5.100000,5.200000,-0.957143,-0.871429,0.700000,0.700000, IOR=3, SURF_ID='BED_R0210' /
&VENT ID='VF02980', XB=5.200000,5.300000,-1.214286,-1.128571,0.700000,0.700000, IOR=3, SURF_ID='BED_R0420' /
&VENT ID='VF02981', XB=5.200000,5.300000,-1.128571,-0.957143,0.700000,0.700000, IOR=3, SURF_ID='BED_R0350' /
&VENT ID='VF02982', XB=5.200000,5.300000,-0.957143,-0.871429,0.700000,0.700000, IOR=3, SURF_ID='BED_R0210' /
&VENT ID='VF02983', XB=5.200000,5.300000,-0.871429,-0.785714,0.700000,0.700000, IOR=3, SURF_ID='BED_R0280' /
&VENT ID='VF02984', XB=5.200000,5.300000,-0.785714,-0.700000,0.700000,0.700000, IOR=3, SURF_ID='BED_R0210' /
&VENT ID='VF02986', XB=5.300000,5.400000,-1.214286,-1.128571,0.700000,0.700000, IOR=3, SURF_ID='BED_R0420' /
&VENT ID='VF02987', XB=5.300000,5.400000,-1.128571,-1.042857,0.700000,0.700000, IOR=3, SURF_ID='BED_R0350' /
&VENT ID='VF02988', XB=5.300000,5.400000,-1.042857,-0.957143,0.700000,0.700000, IOR=3, SURF_ID='BED_R0280' /
&VENT ID='VF02989', XB=5.300000,5.400000,-0.957143,-0.871429,0.700000,0.700000, IOR=3, SURF_ID='BED_R0210' /
! ... 79 like lines cut
&VENT ID='VF03081', XB=3.800000,3.866667,-0.900000,-0.800000,1.300000,1.300000, IOR=3, SURF_ID='SEAT_R0350' /
&VENT ID='VF03082', XB=3.800000,3.866667,-0.800000,-0.700000,1.300000,1.300000, IOR=3, SURF_ID='SEAT_R0140' /
&VENT ID='VF03084', XB=3.800000,3.866667,-0.600000,-0.500000,1.300000,1.300000, IOR=3, SURF_ID='SEAT_R0280' /
&VENT ID='VF03085', XB=3.800000,3.866667,-0.500000,-0.400000,1.300000,1.300000, IOR=3, SURF_ID='SEAT_R0350' /
&VENT ID='VF03086', XB=3.866667,4.000000,-0.900000,-0.800000,1.300000,1.300000, IOR=3, SURF_ID='SEAT_R0350' /
&VENT ID='VF03087', XB=3.866667,4.000000,-0.800000,-0.700000,1.300000,1.300000, IOR=3, SURF_ID='SEAT_R0210' /
&VENT ID='VF03089', XB=3.866667,4.000000,-0.600000,-0.500000,1.300000,1.300000, IOR=3, SURF_ID='SEAT_R0280' /
&VENT ID='VF03090', XB=3.866667,4.000000,-0.500000,-0.400000,1.300000,1.300000, IOR=3, SURF_ID='SEAT_R0420' /
&VENT ID='VF03091', XB=3.800000,3.933333,-0.900000,-0.800000,1.500000,1.500000, IOR=3, SURF_ID='SEAT_R0350' /
&VENT ID='VF03092', XB=3.800000,3.933333,-0.800000,-0.700000,1.500000,1.500000, IOR=3, SURF_ID='SEAT_R0210' /
&VENT ID='VF03094', XB=3.933333,4.000000,-0.900000,-0.800000,1.500000,1.500000, IOR=3, SURF_ID='SEAT_R0210' /
&VENT ID='VF03098', XB=3.800000,3.800000,-0.900000,-0.800000,0.800000,1.000000, IOR=-1, SURF_ID='SEAT_R0700' /
&VENT ID='VF03099', XB=3.800000,3.800000,-0.900000,-0.800000,1.000000,1.100000, IOR=-1, SURF_ID='SEAT_R0630' /
&VENT ID='VF03100', XB=3.800000,3.800000,-0.900000,-0.800000,1.100000,1.500000, IOR=-1, SURF_ID='SEAT_R1259' /
&VENT ID='VF03102', XB=3.800000,3.800000,-0.800000,-0.700000,0.700000,0.800000, IOR=-1, SURF_ID='SEAT_R1329' /
&VENT ID='VF03104', XB=3.800000,3.800000,-0.800000,-0.700000,1.100000,1.200000, IOR=-1, SURF_ID='SEAT_R0630' /
&VENT ID='VF03105', XB=3.800000,3.800000,-0.800000,-0.700000,1.200000,1.400000, IOR=-1, SURF_ID='SEAT_R0770' /
&VENT ID='VF03106', XB=3.800000,3.800000,-0.800000,-0.700000,1.400000,1.500000, IOR=-1, SURF_ID='SEAT_R0700' /
&VENT ID='VF03108', XB=3.800000,3.800000,-0.700000,-0.600000,0.700000,0.800000, IOR=-1, SURF_ID='SEAT_R1259' /
&VENT ID='VF03109', XB=3.800000,3.800000,-0.700000,-0.600000,0.800000,0.900000, IOR=-1, SURF_ID='SEAT_R1329' /
! ... 72 like lines cut
&VENT ID='VF03260', XB=0.600000,0.600000,-0.300000,0.200000,0.400000,0.500000, IOR=-1, SURF_ID='H1_R1749' /
&VENT ID='VF03261', XB=0.600000,0.700000,-0.300000,0.200000,0.500000,0.500000, IOR=3, SURF_ID='H1_R0490' /
&VENT ID='VF03263', XB=0.700000,0.700000,-0.300000,0.200000,0.500000,0.600000, IOR=-1, SURF_ID='H1_R1749' /
&VENT ID='VF03264', XB=0.700000,0.900000,-0.300000,0.200000,0.600000,0.600000, IOR=3, SURF_ID='H1_R0490' /
&VENT ID='VF03266', XB=0.900000,1.000000,-0.300000,0.200000,0.600000,0.600000, IOR=3, SURF_ID='H1_R0490' /
&VENT ID='VF03274', XB=2.400000,2.400000,-0.900000,-0.800000,-0.500000,-0.400000, IOR=-1, SURF_ID='H2_R1749' /
&VENT ID='VF03275', XB=2.400000,2.600000,-0.900000,-0.800000,-0.400000,-0.400000, IOR=3, SURF_ID='H2_R0490' /
&VENT ID='VF03287', XB=2.400000,2.400000,0.800000,0.900000,-0.500000,-0.400000, IOR=-1, SURF_ID='H2_R0840' /
&VENT ID='VF03288', XB=2.400000,2.600000,0.800000,0.900000,-0.400000,-0.400000, IOR=3, SURF_ID='H2_R0210' /
&VENT ID='VF03297', XB=0.600000,0.600000,-0.500000,-0.400000,-0.300000,0.300000, IOR=-1, SURF_ID='H2_R1749' /
&VENT ID='VF03298', XB=0.600000,0.600000,-0.400000,-0.300000,-0.300000,0.200000, IOR=-1, SURF_ID='H2_R0840' /
&VENT ID='VF03299', XB=0.600000,0.600000,-0.400000,-0.300000,0.200000,0.300000, IOR=-1, SURF_ID='H2_R1749' /
&VENT ID='VF03301', XB=0.600000,0.600000,-0.300000,0.300000,0.200000,0.300000, IOR=-1, SURF_ID='H2_R1749' /
&VENT ID='VF03302', XB=0.600000,0.600000,0.300000,0.400000,-0.300000,0.300000, IOR=-1, SURF_ID='H2_R1749' /
&VENT ID='VF03303', XB=0.600000,0.900000,-0.500000,0.400000,0.300000,0.300000, IOR=3, SURF_ID='H2_R0490' /
&VENT ID='VF03304', XB=0.900000,1.000000,-0.500000,-0.400000,0.300000,0.300000, IOR=3, SURF_ID='H2_R0490' /
&VENT ID='VF03305', XB=0.900000,1.000000,-0.400000,-0.300000,0.300000,0.300000, IOR=3, SURF_ID='H2_R0210' /
&VENT ID='VF03307', XB=0.900000,1.000000,0.200000,0.400000,0.300000,0.300000, IOR=3, SURF_ID='H2_R0490' /
&VENT ID='VF03308', XB=0.900000,0.900000,-0.600000,-0.500000,-0.300000,0.000000, IOR=-1, SURF_ID='H2_R0840' /
&VENT ID='VF03312', XB=1.000000,1.000000,0.200000,0.300000,0.300000,0.400000, IOR=-1, SURF_ID='H2_R1749' /
! ... 30 like lines cut
! Redundant surface probes
&DEVC ID='P_RADM_00_WT', QUANTITY='WALL TEMPERATURE', XYZ=-0.0350,0.0000,0.0000, IOR=-1 /
&DEVC ID='P_RADM_00_HF', QUANTITY='NET HEAT FLUX', XYZ=-0.0350,0.0000,0.0000, IOR=-1 /
&DEVC ID='P_RADM_01_WT', QUANTITY='WALL TEMPERATURE', XYZ=1.3650,-0.2500,0.9500, IOR=-1 /
&DEVC ID='P_RADM_01_HF', QUANTITY='NET HEAT FLUX', XYZ=1.3650,-0.2500,0.9500, IOR=-1 /
&DEVC ID='P_RADM_02_WT', QUANTITY='WALL TEMPERATURE', XYZ=1.3650,0.0000,-0.9500, IOR=-1 /
&DEVC ID='P_RADM_02_HF', QUANTITY='NET HEAT FLUX', XYZ=1.3650,0.0000,-0.9500, IOR=-1 /
&DEVC ID='P_RADM_03_WT', QUANTITY='WALL TEMPERATURE', XYZ=1.1650,0.8500,0.0500, IOR=-1 /
&DEVC ID='P_RADM_03_HF', QUANTITY='NET HEAT FLUX', XYZ=1.1650,0.8500,0.0500, IOR=-1 /
&DEVC ID='P_RADM_04_WT', QUANTITY='WALL TEMPERATURE', XYZ=1.2650,-0.8500,-0.1500, IOR=-1 /
&DEVC ID='P_RADM_04_HF', QUANTITY='NET HEAT FLUX', XYZ=1.2650,-0.8500,-0.1500, IOR=-1 /
&DEVC ID='P_RADM_05_WT', QUANTITY='WALL TEMPERATURE', XYZ=0.6650,-0.4500,0.4500, IOR=-1 /
&DEVC ID='P_RADM_05_HF', QUANTITY='NET HEAT FLUX', XYZ=0.6650,-0.4500,0.4500, IOR=-1 /
&DEVC ID='P_RADM_06_WT', QUANTITY='WALL TEMPERATURE', XYZ=0.6650,-0.2500,-0.5500, IOR=-1 /
&DEVC ID='P_RADM_06_HF', QUANTITY='NET HEAT FLUX', XYZ=0.6650,-0.2500,-0.5500, IOR=-1 /
&DEVC ID='P_RADM_07_WT', QUANTITY='WALL TEMPERATURE', XYZ=0.8650,0.3500,0.6500, IOR=-1 /
&DEVC ID='P_RADM_07_HF', QUANTITY='NET HEAT FLUX', XYZ=0.8650,0.3500,0.6500, IOR=-1 /
&DEVC ID='P_RADM_08_WT', QUANTITY='WALL TEMPERATURE', XYZ=0.5650,0.4500,-0.3500, IOR=-1 /
&DEVC ID='P_RADM_08_HF', QUANTITY='NET HEAT FLUX', XYZ=0.5650,0.4500,-0.3500, IOR=-1 /
&DEVC ID='P_RADM_09_WT', QUANTITY='WALL TEMPERATURE', XYZ=1.2650,-0.7500,0.5500, IOR=-1 /
&DEVC ID='P_RADM_09_HF', QUANTITY='NET HEAT FLUX', XYZ=1.2650,-0.7500,0.5500, IOR=-1 /
&DEVC ID='P_WINS_00_WT', QUANTITY='WALL TEMPERATURE', XYZ=1.7650,0.3500,1.1500, IOR=-1 /
&DEVC ID='P_WINS_00_HF', QUANTITY='NET HEAT FLUX', XYZ=1.7650,0.3500,1.1500, IOR=-1 /
&DEVC ID='P_WINS_01_WT', QUANTITY='WALL TEMPERATURE', XYZ=4.1650,-1.1500,1.3500, IOR=-1 /
&DEVC ID='P_WINS_01_HF', QUANTITY='NET HEAT FLUX', XYZ=4.1650,-1.1500,1.3500, IOR=-1 /
&DEVC ID='P_WINS_02_WT', QUANTITY='WALL TEMPERATURE', XYZ=3.8650,1.2500,1.1500, IOR=-1 /
&DEVC ID='P_WINS_02_HF', QUANTITY='NET HEAT FLUX', XYZ=3.8650,1.2500,1.1500, IOR=-1 /
&DEVC ID='P_WINS_03_WT', QUANTITY='WALL TEMPERATURE', XYZ=2.6650,-0.9500,1.1500, IOR=-1 /
&DEVC ID='P_WINS_03_HF', QUANTITY='NET HEAT FLUX', XYZ=2.6650,-0.9500,1.1500, IOR=-1 /
&DEVC ID='P_WINS_04_WT', QUANTITY='WALL TEMPERATURE', XYZ=2.7650,0.8500,1.3500, IOR=-1 /
&DEVC ID='P_WINS_04_HF', QUANTITY='NET HEAT FLUX', XYZ=2.7650,0.8500,1.3500, IOR=-1 /
&DEVC ID='P_WINS_05_WT', QUANTITY='WALL TEMPERATURE', XYZ=2.4650,-0.0000,1.7500, IOR=-1 /
&DEVC ID='P_WINS_05_HF', QUANTITY='NET HEAT FLUX', XYZ=2.4650,-0.0000,1.7500, IOR=-1 /
&DEVC ID='P_WINS_06_WT', QUANTITY='WALL TEMPERATURE', XYZ=2.0650,-0.4500,1.2500, IOR=-1 /
&DEVC ID='P_WINS_06_HF', QUANTITY='NET HEAT FLUX', XYZ=2.0650,-0.4500,1.2500, IOR=-1 /
&DEVC ID='P_WINS_07_WT', QUANTITY='WALL TEMPERATURE', XYZ=3.3650,-0.9500,1.4500, IOR=-1 /
&DEVC ID='P_WINS_07_HF', QUANTITY='NET HEAT FLUX', XYZ=3.3650,-0.9500,1.4500, IOR=-1 /
&DEVC ID='P_WINS_08_WT', QUANTITY='WALL TEMPERATURE', XYZ=3.5650,0.8500,1.6500, IOR=-1 /
&DEVC ID='P_WINS_08_HF', QUANTITY='NET HEAT FLUX', XYZ=3.5650,0.8500,1.6500, IOR=-1 /
&DEVC ID='P_WINS_09_WT', QUANTITY='WALL TEMPERATURE', XYZ=2.2650,0.4500,1.4500, IOR=-1 /
&DEVC ID='P_WINS_09_HF', QUANTITY='NET HEAT FLUX', XYZ=2.2650,0.4500,1.4500, IOR=-1 /
&DEVC ID='P_BED_01_WT', QUANTITY='WALL TEMPERATURE', XYZ=6.9500,-1.0000,0.6350, IOR=3 /
&DEVC ID='P_BED_01_HF', QUANTITY='NET HEAT FLUX', XYZ=6.9500,-1.0000,0.6350, IOR=3 /
&DEVC ID='P_BED_02_WT', QUANTITY='WALL TEMPERATURE', XYZ=5.0500,-1.1714,0.6350, IOR=3 /
&DEVC ID='P_BED_02_HF', QUANTITY='NET HEAT FLUX', XYZ=5.0500,-1.1714,0.6350, IOR=3 /
&DEVC ID='P_BED_03_WT', QUANTITY='WALL TEMPERATURE', XYZ=5.4500,-0.8286,0.6350, IOR=3 /
&DEVC ID='P_BED_03_HF', QUANTITY='NET HEAT FLUX', XYZ=5.4500,-0.8286,0.6350, IOR=3 /
&DEVC ID='P_BED_04_WT', QUANTITY='WALL TEMPERATURE', XYZ=6.4500,-1.0857,0.6350, IOR=3 /
&DEVC ID='P_BED_04_HF', QUANTITY='NET HEAT FLUX', XYZ=6.4500,-1.0857,0.6350, IOR=3 /
&DEVC ID='P_BED_05_WT', QUANTITY='WALL TEMPERATURE', XYZ=5.5500,-1.2571,0.6350, IOR=3 /
&DEVC ID='P_BED_05_HF', QUANTITY='NET HEAT FLUX', XYZ=5.5500,-1.2571,0.6350, IOR=3 /
&DEVC ID='P_BED_07_WT', QUANTITY='WALL TEMPERATURE', XYZ=6.6500,-0.7429,0.6350, IOR=3 /
&DEVC ID='P_BED_07_HF', QUANTITY='NET HEAT FLUX', XYZ=6.6500,-0.7429,0.6350, IOR=3 /
&DEVC ID='P_BED_08_WT', QUANTITY='WALL TEMPERATURE', XYZ=6.7500,-1.1714,0.6350, IOR=3 /
&DEVC ID='P_BED_08_HF', QUANTITY='NET HEAT FLUX', XYZ=6.7500,-1.1714,0.6350, IOR=3 /
&DEVC ID='P_BED_09_WT', QUANTITY='WALL TEMPERATURE', XYZ=6.2500,-0.7429,0.6350, IOR=3 /
&DEVC ID='P_BED_09_HF', QUANTITY='NET HEAT FLUX', XYZ=6.2500,-0.7429,0.6350, IOR=3 /
&DEVC ID='P_CURT_00_WT', QUANTITY='WALL TEMPERATURE', XYZ=2.6650,0.7500,1.0500, IOR=-1 /
&DEVC ID='P_CURT_00_HF', QUANTITY='NET HEAT FLUX', XYZ=2.6650,0.7500,1.0500, IOR=-1 /
&DEVC ID='P_CURT_01_WT', QUANTITY='WALL TEMPERATURE', XYZ=5.9650,-0.4500,0.3000, IOR=-1 /
&DEVC ID='P_CURT_01_HF', QUANTITY='NET HEAT FLUX', XYZ=5.9650,-0.4500,0.3000, IOR=-1 /
&DEVC ID='P_CURT_02_WT', QUANTITY='WALL TEMPERATURE', XYZ=4.0650,-1.1500,1.0500, IOR=-1 /
&DEVC ID='P_CURT_02_HF', QUANTITY='NET HEAT FLUX', XYZ=4.0650,-1.1500,1.0500, IOR=-1 /
&DEVC ID='P_CURT_03_WT', QUANTITY='WALL TEMPERATURE', XYZ=2.6650,-0.7500,1.0500, IOR=-1 /
&DEVC ID='P_CURT_03_HF', QUANTITY='NET HEAT FLUX', XYZ=2.6650,-0.7500,1.0500, IOR=-1 /
&DEVC ID='P_CURT_04_WT', QUANTITY='WALL TEMPERATURE', XYZ=4.0650,1.1500,1.0500, IOR=-1 /
&DEVC ID='P_CURT_04_HF', QUANTITY='NET HEAT FLUX', XYZ=4.0650,1.1500,1.0500, IOR=-1 /
&DEVC ID='P_CURT_05_WT', QUANTITY='WALL TEMPERATURE', XYZ=5.9650,0.5500,0.7500, IOR=-1 /
&DEVC ID='P_CURT_05_HF', QUANTITY='NET HEAT FLUX', XYZ=5.9650,0.5500,0.7500, IOR=-1 /
&DEVC ID='P_CURT_06_WT', QUANTITY='WALL TEMPERATURE', XYZ=2.0650,0.0000,1.1500, IOR=-1 /
&DEVC ID='P_CURT_06_HF', QUANTITY='NET HEAT FLUX', XYZ=2.0650,0.0000,1.1500, IOR=-1 /
&DEVC ID='P_CURT_07_WT', QUANTITY='WALL TEMPERATURE', XYZ=3.2650,0.7500,1.5500, IOR=-1 /
&DEVC ID='P_CURT_07_HF', QUANTITY='NET HEAT FLUX', XYZ=3.2650,0.7500,1.5500, IOR=-1 /
&DEVC ID='P_CURT_08_WT', QUANTITY='WALL TEMPERATURE', XYZ=2.6650,-0.1500,1.6500, IOR=-1 /
&DEVC ID='P_CURT_08_HF', QUANTITY='NET HEAT FLUX', XYZ=2.6650,-0.1500,1.6500, IOR=-1 /
&DEVC ID='P_CURT_09_WT', QUANTITY='WALL TEMPERATURE', XYZ=3.4650,-0.8500,1.4500, IOR=-1 /
&DEVC ID='P_CURT_09_HF', QUANTITY='NET HEAT FLUX', XYZ=3.4650,-0.8500,1.4500, IOR=-1 /
&DEVC ID='P_U4_00_WT', QUANTITY='WALL TEMPERATURE', XYZ=8.3761,1.1750,0.9500, IOR=-1 /
&DEVC ID='P_U4_00_HF', QUANTITY='NET HEAT FLUX', XYZ=8.3761,1.1750,0.9500, IOR=-1 /
&DEVC ID='P_U4_01_WT', QUANTITY='WALL TEMPERATURE', XYZ=8.4817,1.1250,0.9500, IOR=-1 /
&DEVC ID='P_U4_01_HF', QUANTITY='NET HEAT FLUX', XYZ=8.4817,1.1250,0.9500, IOR=-1 /
&DEVC ID='P_U4_02_WT', QUANTITY='WALL TEMPERATURE', XYZ=8.5872,1.0750,0.9500, IOR=-1 /
&DEVC ID='P_U4_02_HF', QUANTITY='NET HEAT FLUX', XYZ=8.5872,1.0750,0.9500, IOR=-1 /
&DEVC ID='P_U4_03_WT', QUANTITY='WALL TEMPERATURE', XYZ=8.6928,1.0250,0.9500, IOR=-1 /
&DEVC ID='P_U4_03_HF', QUANTITY='NET HEAT FLUX', XYZ=8.6928,1.0250,0.9500, IOR=-1 /
&DEVC ID='P_U4_04_WT', QUANTITY='WALL TEMPERATURE', XYZ=8.7983,0.9750,0.9500, IOR=-1 /
&DEVC ID='P_U4_04_HF', QUANTITY='NET HEAT FLUX', XYZ=8.7983,0.9750,0.9500, IOR=-1 /
&DEVC ID='P_U4_05_WT', QUANTITY='WALL TEMPERATURE', XYZ=8.9039,0.0000,0.9500, IOR=-1 /
&DEVC ID='P_U4_05_HF', QUANTITY='NET HEAT FLUX', XYZ=8.9039,0.0000,0.9500, IOR=-1 /
&DEVC ID='P_SEAT_00_WT', QUANTITY='WALL TEMPERATURE', XYZ=3.7650,-0.4500,0.9500, IOR=-1 /
&DEVC ID='P_SEAT_00_HF', QUANTITY='NET HEAT FLUX', XYZ=3.7650,-0.4500,0.9500, IOR=-1 /
&DEVC ID='P_SEAT_01_WT', QUANTITY='WALL TEMPERATURE', XYZ=8.0650,-0.8500,0.4500, IOR=-1 /
&DEVC ID='P_SEAT_01_HF', QUANTITY='NET HEAT FLUX', XYZ=8.0650,-0.8500,0.4500, IOR=-1 /
&DEVC ID='P_SEAT_02_WT', QUANTITY='WALL TEMPERATURE', XYZ=5.9500,0.5500,-1.0650, IOR=3 /
&DEVC ID='P_SEAT_02_HF', QUANTITY='NET HEAT FLUX', XYZ=5.9500,0.5500,-1.0650, IOR=3 /
&DEVC ID='P_SEAT_03_WT', QUANTITY='WALL TEMPERATURE', XYZ=7.5650,0.7500,0.4500, IOR=-1 /
&DEVC ID='P_SEAT_03_HF', QUANTITY='NET HEAT FLUX', XYZ=7.5650,0.7500,0.4500, IOR=-1 /
&DEVC ID='P_SEAT_04_WT', QUANTITY='WALL TEMPERATURE', XYZ=3.9650,0.7500,1.4500, IOR=-1 /
&DEVC ID='P_SEAT_04_HF', QUANTITY='NET HEAT FLUX', XYZ=3.9650,0.7500,1.4500, IOR=-1 /
&DEVC ID='P_SEAT_05_WT', QUANTITY='WALL TEMPERATURE', XYZ=6.2000,-0.6500,0.0350, IOR=3 /
&DEVC ID='P_SEAT_05_HF', QUANTITY='NET HEAT FLUX', XYZ=6.2000,-0.6500,0.0350, IOR=3 /
&DEVC ID='P_SEAT_06_WT', QUANTITY='WALL TEMPERATURE', XYZ=3.2650,0.5500,0.4500, IOR=-1 /
&DEVC ID='P_SEAT_06_HF', QUANTITY='NET HEAT FLUX', XYZ=3.2650,0.5500,0.4500, IOR=-1 /
&DEVC ID='P_SEAT_07_WT', QUANTITY='WALL TEMPERATURE', XYZ=7.5500,-0.6500,1.5350, IOR=3 /
&DEVC ID='P_SEAT_07_HF', QUANTITY='NET HEAT FLUX', XYZ=7.5500,-0.6500,1.5350, IOR=3 /
&DEVC ID='P_SEAT_08_WT', QUANTITY='WALL TEMPERATURE', XYZ=5.6650,-0.6500,-1.0500, IOR=-1 /
&DEVC ID='P_SEAT_08_HF', QUANTITY='NET HEAT FLUX', XYZ=5.6650,-0.6500,-1.0500, IOR=-1 /
&DEVC ID='P_SEAT_09_WT', QUANTITY='WALL TEMPERATURE', XYZ=6.2000,0.5500,0.0350, IOR=3 /
&DEVC ID='P_SEAT_09_HF', QUANTITY='NET HEAT FLUX', XYZ=6.2000,0.5500,0.0350, IOR=3 /
&DEVC ID='P_AL2024_00_WT', QUANTITY='WALL TEMPERATURE', XYZ=1.3650,-0.1500,-0.9500, IOR=-1 /
&DEVC ID='P_AL2024_00_HF', QUANTITY='NET HEAT FLUX', XYZ=1.3650,-0.1500,-0.9500, IOR=-1 /
&DEVC ID='P_AL2024_01_WT', QUANTITY='WALL TEMPERATURE', XYZ=9.9505,0.1750,2.1850, IOR=3 /
&DEVC ID='P_AL2024_01_HF', QUANTITY='NET HEAT FLUX', XYZ=9.9505,0.1750,2.1850, IOR=3 /
&DEVC ID='P_AL2024_02_WT', QUANTITY='WALL TEMPERATURE', XYZ=6.5650,-1.0500,-1.6500, IOR=-1 /
&DEVC ID='P_AL2024_02_HF', QUANTITY='NET HEAT FLUX', XYZ=6.5650,-1.0500,-1.6500, IOR=-1 /
&DEVC ID='P_AL2024_03_WT', QUANTITY='WALL TEMPERATURE', XYZ=4.5650,0.4500,2.0500, IOR=-1 /
&DEVC ID='P_AL2024_03_HF', QUANTITY='NET HEAT FLUX', XYZ=4.5650,0.4500,2.0500, IOR=-1 /
&DEVC ID='P_AL2024_04_WT', QUANTITY='WALL TEMPERATURE', XYZ=9.9153,0.7750,-1.8150, IOR=3 /
&DEVC ID='P_AL2024_04_HF', QUANTITY='NET HEAT FLUX', XYZ=9.9153,0.7750,-1.8150, IOR=3 /
&DEVC ID='P_AL2024_05_WT', QUANTITY='WALL TEMPERATURE', XYZ=4.2650,1.2500,-1.5500, IOR=-1 /
&DEVC ID='P_AL2024_05_HF', QUANTITY='NET HEAT FLUX', XYZ=4.2650,1.2500,-1.5500, IOR=-1 /
&DEVC ID='P_AL2024_06_WT', QUANTITY='WALL TEMPERATURE', XYZ=3.6650,-1.4500,-0.2500, IOR=-1 /
&DEVC ID='P_AL2024_06_HF', QUANTITY='NET HEAT FLUX', XYZ=3.6650,-1.4500,-0.2500, IOR=-1 /
&DEVC ID='P_AL2024_07_WT', QUANTITY='WALL TEMPERATURE', XYZ=7.0000,-1.4500,1.1350, IOR=3 /
&DEVC ID='P_AL2024_07_HF', QUANTITY='NET HEAT FLUX', XYZ=7.0000,-1.4500,1.1350, IOR=3 /
&DEVC ID='P_AL2024_08_WT', QUANTITY='WALL TEMPERATURE', XYZ=7.0000,1.4500,1.1350, IOR=3 /
&DEVC ID='P_AL2024_08_HF', QUANTITY='NET HEAT FLUX', XYZ=7.0000,1.4500,1.1350, IOR=3 /
&DEVC ID='P_AL2024_09_WT', QUANTITY='WALL TEMPERATURE', XYZ=1.9650,0.2500,1.3500, IOR=-1 /
&DEVC ID='P_AL2024_09_HF', QUANTITY='NET HEAT FLUX', XYZ=1.9650,0.2500,1.3500, IOR=-1 /
&DEVC ID='P_AL5052_00_WT', QUANTITY='WALL TEMPERATURE', XYZ=9.0972,-1.1000,0.0350, IOR=3 /
&DEVC ID='P_AL5052_00_HF', QUANTITY='NET HEAT FLUX', XYZ=9.0972,-1.1000,0.0350, IOR=3 /
&DEVC ID='P_AL5052_01_WT', QUANTITY='WALL TEMPERATURE', XYZ=9.6250,-1.1000,0.0350, IOR=3 /
&DEVC ID='P_AL5052_01_HF', QUANTITY='NET HEAT FLUX', XYZ=9.6250,-1.1000,0.0350, IOR=3 /
&DEVC ID='P_AL5052_02_WT', QUANTITY='WALL TEMPERATURE', XYZ=9.3347,-1.1250,0.3850, IOR=3 /
&DEVC ID='P_AL5052_02_HF', QUANTITY='NET HEAT FLUX', XYZ=9.3347,-1.1250,0.3850, IOR=3 /
&DEVC ID='P_AL5052_03_WT', QUANTITY='WALL TEMPERATURE', XYZ=9.3875,-1.1000,-0.0650, IOR=3 /
&DEVC ID='P_AL5052_03_HF', QUANTITY='NET HEAT FLUX', XYZ=9.3875,-1.1000,-0.0650, IOR=3 /
&DEVC ID='P_AL5052_04_WT', QUANTITY='WALL TEMPERATURE', XYZ=9.3261,-1.0750,0.1500, IOR=-1 /
&DEVC ID='P_AL5052_04_HF', QUANTITY='NET HEAT FLUX', XYZ=9.3261,-1.0750,0.1500, IOR=-1 /
&DEVC ID='P_AL5052_05_WT', QUANTITY='WALL TEMPERATURE', XYZ=9.2028,-1.0750,0.4350, IOR=3 /
&DEVC ID='P_AL5052_05_HF', QUANTITY='NET HEAT FLUX', XYZ=9.2028,-1.0750,0.4350, IOR=3 /
&DEVC ID='P_AL5052_06_WT', QUANTITY='WALL TEMPERATURE', XYZ=9.2206,-1.1250,0.1500, IOR=-1 /
&DEVC ID='P_AL5052_06_HF', QUANTITY='NET HEAT FLUX', XYZ=9.2206,-1.1250,0.1500, IOR=-1 /
&DEVC ID='P_AL5052_07_WT', QUANTITY='WALL TEMPERATURE', XYZ=9.2028,-1.1250,0.3350, IOR=3 /
&DEVC ID='P_AL5052_07_HF', QUANTITY='NET HEAT FLUX', XYZ=9.2028,-1.1250,0.3350, IOR=3 /
&DEVC ID='P_AL5052_08_WT', QUANTITY='WALL TEMPERATURE', XYZ=9.2556,-1.0750,0.3350, IOR=3 /
&DEVC ID='P_AL5052_08_HF', QUANTITY='NET HEAT FLUX', XYZ=9.2556,-1.0750,0.3350, IOR=3 /
&DEVC ID='P_AL5052_09_WT', QUANTITY='WALL TEMPERATURE', XYZ=9.2733,-1.1250,0.3750, IOR=-1 /
&DEVC ID='P_AL5052_09_HF', QUANTITY='NET HEAT FLUX', XYZ=9.2733,-1.1250,0.3750, IOR=-1 /
! ... 20 like lines cut
&DEVC ID='P_O2TANK_00_WT', QUANTITY='WALL TEMPERATURE', XYZ=7.7150,-0.9500,0.3500, IOR=-1 /
&DEVC ID='P_O2TANK_00_HF', QUANTITY='NET HEAT FLUX', XYZ=7.7150,-0.9500,0.3500, IOR=-1 /
&DEVC ID='P_O2TANK_01_WT', QUANTITY='WALL TEMPERATURE', XYZ=3.5150,0.9500,0.3000, IOR=-1 /
&DEVC ID='P_O2TANK_01_HF', QUANTITY='NET HEAT FLUX', XYZ=3.5150,0.9500,0.3000, IOR=-1 /
&DEVC ID='P_O2TANK_02_WT', QUANTITY='WALL TEMPERATURE', XYZ=6.0000,1.0500,-1.1650, IOR=3 /
&DEVC ID='P_O2TANK_02_HF', QUANTITY='NET HEAT FLUX', XYZ=6.0000,1.0500,-1.1650, IOR=3 /
&DEVC ID='P_O2TANK_03_WT', QUANTITY='WALL TEMPERATURE', XYZ=7.7150,0.9500,0.3500, IOR=-1 /
&DEVC ID='P_O2TANK_03_HF', QUANTITY='NET HEAT FLUX', XYZ=7.7150,0.9500,0.3500, IOR=-1 /
&DEVC ID='P_O2TANK_04_WT', QUANTITY='WALL TEMPERATURE', XYZ=5.9650,-1.0500,-1.2000, IOR=-1 /
&DEVC ID='P_O2TANK_04_HF', QUANTITY='NET HEAT FLUX', XYZ=5.9650,-1.0500,-1.2000, IOR=-1 /
&DEVC ID='P_O2TANK_05_WT', QUANTITY='WALL TEMPERATURE', XYZ=3.5500,-0.9500,0.3350, IOR=3 /
&DEVC ID='P_O2TANK_05_HF', QUANTITY='NET HEAT FLUX', XYZ=3.5500,-0.9500,0.3350, IOR=3 /
&DEVC ID='P_O2TANK_06_WT', QUANTITY='WALL TEMPERATURE', XYZ=7.7150,0.9500,0.2500, IOR=-1 /
&DEVC ID='P_O2TANK_06_HF', QUANTITY='NET HEAT FLUX', XYZ=7.7150,0.9500,0.2500, IOR=-1 /
&DEVC ID='P_O2TANK_07_WT', QUANTITY='WALL TEMPERATURE', XYZ=7.7150,-0.9500,0.4500, IOR=-1 /
&DEVC ID='P_O2TANK_07_HF', QUANTITY='NET HEAT FLUX', XYZ=7.7150,-0.9500,0.4500, IOR=-1 /
&DEVC ID='P_O2TANK_08_WT', QUANTITY='WALL TEMPERATURE', XYZ=7.7150,0.9500,0.4500, IOR=-1 /
&DEVC ID='P_O2TANK_08_HF', QUANTITY='NET HEAT FLUX', XYZ=7.7150,0.9500,0.4500, IOR=-1 /
&DEVC ID='P_O2TANK_09_WT', QUANTITY='WALL TEMPERATURE', XYZ=7.7150,-0.9500,0.2500, IOR=-1 /
&DEVC ID='P_O2TANK_09_HF', QUANTITY='NET HEAT FLUX', XYZ=7.7150,-0.9500,0.2500, IOR=-1 /
&DEVC ID='P_H1_00_WT', QUANTITY='WALL TEMPERATURE', XYZ=0.6150,-0.0500,0.4500, IOR=-1 /
&DEVC ID='P_H1_00_HF', QUANTITY='NET HEAT FLUX', XYZ=0.6150,-0.0500,0.4500, IOR=-1 /
&DEVC ID='P_H1_03_WT', QUANTITY='WALL TEMPERATURE', XYZ=0.7650,-0.0500,0.5500, IOR=-1 /
&DEVC ID='P_H1_03_HF', QUANTITY='NET HEAT FLUX', XYZ=0.7650,-0.0500,0.5500, IOR=-1 /
&DEVC ID='P_H1_04_WT', QUANTITY='WALL TEMPERATURE', XYZ=0.9500,-0.0500,0.5850, IOR=3 /
&DEVC ID='P_H1_04_HF', QUANTITY='NET HEAT FLUX', XYZ=0.9500,-0.0500,0.5850, IOR=3 /
&DEVC ID='P_H1_05_WT', QUANTITY='WALL TEMPERATURE', XYZ=0.6500,-0.0500,0.4850, IOR=3 /
&DEVC ID='P_H1_05_HF', QUANTITY='NET HEAT FLUX', XYZ=0.6500,-0.0500,0.4850, IOR=3 /
&DEVC ID='P_H1_06_WT', QUANTITY='WALL TEMPERATURE', XYZ=0.8000,-0.0500,0.5350, IOR=3 /
&DEVC ID='P_H1_06_HF', QUANTITY='NET HEAT FLUX', XYZ=0.8000,-0.0500,0.5350, IOR=3 /
&DEVC ID='P_H1_07_WT', QUANTITY='WALL TEMPERATURE', XYZ=0.7650,-0.0500,0.4500, IOR=-1 /
&DEVC ID='P_H1_07_HF', QUANTITY='NET HEAT FLUX', XYZ=0.7650,-0.0500,0.4500, IOR=-1 /
&DEVC ID='P_H1_09_WT', QUANTITY='WALL TEMPERATURE', XYZ=7.8500,0.0000,-1.1150, IOR=3 /
&DEVC ID='P_H1_09_HF', QUANTITY='NET HEAT FLUX', XYZ=7.8500,0.0000,-1.1150, IOR=3 /
&DEVC ID='P_H2_00_WT', QUANTITY='WALL TEMPERATURE', XYZ=2.4650,-0.8500,-0.4500, IOR=-1 /
&DEVC ID='P_H2_00_HF', QUANTITY='NET HEAT FLUX', XYZ=2.4650,-0.8500,-0.4500, IOR=-1 /
&DEVC ID='P_H2_01_WT', QUANTITY='WALL TEMPERATURE', XYZ=0.4150,-0.0000,0.0000, IOR=-1 /
&DEVC ID='P_H2_01_HF', QUANTITY='NET HEAT FLUX', XYZ=0.4150,-0.0000,0.0000, IOR=-1 /
&DEVC ID='P_H2_02_WT', QUANTITY='WALL TEMPERATURE', XYZ=3.4000,1.3500,-0.4650, IOR=3 /
&DEVC ID='P_H2_02_HF', QUANTITY='NET HEAT FLUX', XYZ=3.4000,1.3500,-0.4650, IOR=3 /
&DEVC ID='P_H2_03_WT', QUANTITY='WALL TEMPERATURE', XYZ=1.2650,0.6500,-0.1500, IOR=-1 /
&DEVC ID='P_H2_03_HF', QUANTITY='NET HEAT FLUX', XYZ=1.2650,0.6500,-0.1500, IOR=-1 /
&DEVC ID='P_H2_04_WT', QUANTITY='WALL TEMPERATURE', XYZ=1.1650,-0.0500,0.6500, IOR=-1 /
&DEVC ID='P_H2_04_HF', QUANTITY='NET HEAT FLUX', XYZ=1.1650,-0.0500,0.6500, IOR=-1 /
&DEVC ID='P_H2_05_WT', QUANTITY='WALL TEMPERATURE', XYZ=2.4650,0.8500,-0.4500, IOR=-1 /
&DEVC ID='P_H2_05_HF', QUANTITY='NET HEAT FLUX', XYZ=2.4650,0.8500,-0.4500, IOR=-1 /
&DEVC ID='P_H2_06_WT', QUANTITY='WALL TEMPERATURE', XYZ=1.2650,-0.6500,-0.1500, IOR=-1 /
&DEVC ID='P_H2_06_HF', QUANTITY='NET HEAT FLUX', XYZ=1.2650,-0.6500,-0.1500, IOR=-1 /
&DEVC ID='P_H2_07_WT', QUANTITY='WALL TEMPERATURE', XYZ=3.4000,-1.3500,-0.4650, IOR=3 /
&DEVC ID='P_H2_07_HF', QUANTITY='NET HEAT FLUX', XYZ=3.4000,-1.3500,-0.4650, IOR=3 /
&DEVC ID='P_H2_08_WT', QUANTITY='WALL TEMPERATURE', XYZ=0.7650,-0.4500,0.0000, IOR=-1 /
&DEVC ID='P_H2_08_HF', QUANTITY='NET HEAT FLUX', XYZ=0.7650,-0.4500,0.0000, IOR=-1 /
&DEVC ID='P_H2_09_WT', QUANTITY='WALL TEMPERATURE', XYZ=1.1650,-0.4500,0.3500, IOR=-1 /
&DEVC ID='P_H2_09_HF', QUANTITY='NET HEAT FLUX', XYZ=1.1650,-0.4500,0.3500, IOR=-1 /
&DEVC ID='P_H3_00_WT', QUANTITY='WALL TEMPERATURE', XYZ=1.9500,0.0000,0.1350, IOR=3 /
&DEVC ID='P_H3_00_HF', QUANTITY='NET HEAT FLUX', XYZ=1.9500,0.0000,0.1350, IOR=3 /
&DEVC ID='P_H3_01_WT', QUANTITY='WALL TEMPERATURE', XYZ=9.0444,0.0000,1.5350, IOR=3 /
&DEVC ID='P_H3_01_HF', QUANTITY='NET HEAT FLUX', XYZ=9.0444,0.0000,1.5350, IOR=3 /
&DEVC ID='P_H3_02_WT', QUANTITY='WALL TEMPERATURE', XYZ=5.7500,-1.2500,-0.7650, IOR=3 /
&DEVC ID='P_H3_02_HF', QUANTITY='NET HEAT FLUX', XYZ=5.7500,-1.2500,-0.7650, IOR=3 /
! ... 78 like lines cut
&DEVC ID='HRR_total', QUANTITY='HRR', XB=-0.250,10.050,-1.850,1.650,-2.150,2.550 /
&SLCF PBY=0.0, QUANTITY='TEMPERATURE' /
&SLCF PBY=0.0, QUANTITY='HRRPUV' /
&SLCF PBZ=0.8, QUANTITY='TEMPERATURE' /
&BNDF QUANTITY='WALL TEMPERATURE' /
&BNDF QUANTITY='NET HEAT FLUX' /
&BNDF QUANTITY='BURNING RATE' /
&TAIL /
