Separated_merge_20260720.fds
Generated by PyroSim 2024.2.1120
2026年7月20日 20:51:34

-------------User Section (not generated by PyroSim)-------------

&RAMP ID='NUCLEAR_RAMP', T=0.000000, F=0.000000 /
&RAMP ID='NUCLEAR_RAMP', T=0.030343, F=0.026000 /
&RAMP ID='NUCLEAR_RAMP', T=0.060686, F=0.110000 /
&RAMP ID='NUCLEAR_RAMP', T=0.091028, F=0.230000 /
&RAMP ID='NUCLEAR_RAMP', T=0.121371, F=0.380000 /
&RAMP ID='NUCLEAR_RAMP', T=0.151715, F=0.565000 /
&RAMP ID='NUCLEAR_RAMP', T=0.182057, F=0.735000 /
&RAMP ID='NUCLEAR_RAMP', T=0.212403, F=0.855000 /
&RAMP ID='NUCLEAR_RAMP', T=0.242745, F=0.945000 /
&RAMP ID='NUCLEAR_RAMP', T=0.273088, F=0.980000 /
&RAMP ID='NUCLEAR_RAMP', T=0.303431, F=1.000000 /
&RAMP ID='NUCLEAR_RAMP', T=0.364116, F=0.935000 /
&RAMP ID='NUCLEAR_RAMP', T=0.424802, F=0.795000 /
&RAMP ID='NUCLEAR_RAMP', T=0.485488, F=0.630000 /
&RAMP ID='NUCLEAR_RAMP', T=0.546174, F=0.520000 /
&RAMP ID='NUCLEAR_RAMP', T=0.606861, F=0.430000 /
&RAMP ID='NUCLEAR_RAMP', T=0.667547, F=0.366000 /
&RAMP ID='NUCLEAR_RAMP', T=0.728233, F=0.320000 /
&RAMP ID='NUCLEAR_RAMP', T=0.788918, F=0.280000 /
&RAMP ID='NUCLEAR_RAMP', T=0.849604, F=0.245000 /
! ... 21 like lines cut
&RAMP ID='Q_RAMP', T=0.0, F=0.0 /
&RAMP ID='Q_RAMP', T=3.0, F=1.0 /


--------------------PyroSim-generated Section--------------------

&HEAD CHID='Q0400_W0100_az060_el75_H1H7_v5_Qnorm_adapt_HRRtable_seatSTLfill_thin4mm_v1'/
&TIME T_END=1500.0/
&DUMP DT_RESTART=300.0, DT_SL3D=0.25/

&MESH ID='Mesh01_0_0_0', IJK=85,9,10, XB=-0.300000,8.200000,-1.900000,-1.000000,-2.200000,-1.200000, MPI_PROCESS=0 /
&MESH ID='Mesh01_0_0_1', IJK=85,9,10, XB=-0.300000,8.200000,-1.900000,-1.000000,-1.200000,-0.200000, MPI_PROCESS=1 /
&MESH ID='Mesh01_0_0_2', IJK=85,9,10, XB=-0.300000,8.200000,-1.900000,-1.000000,-0.200000,0.800000, MPI_PROCESS=2 /
&MESH ID='Mesh01_0_0_3', IJK=85,9,9, XB=-0.300000,8.200000,-1.900000,-1.000000,0.800000,1.700000, MPI_PROCESS=3 /
&MESH ID='Mesh01_0_0_4', IJK=85,9,9, XB=-0.300000,8.200000,-1.900000,-1.000000,1.700000,2.600000, MPI_PROCESS=4 /
&MESH ID='Mesh01_0_1_0', IJK=85,9,10, XB=-0.300000,8.200000,-1.000000,-0.100000,-2.200000,-1.200000, MPI_PROCESS=5 /
&MESH ID='Mesh01_0_1_1', IJK=85,9,10, XB=-0.300000,8.200000,-1.000000,-0.100000,-1.200000,-0.200000, MPI_PROCESS=6 /
&MESH ID='Mesh01_0_1_2', IJK=85,9,10, XB=-0.300000,8.200000,-1.000000,-0.100000,-0.200000,0.800000, MPI_PROCESS=7 /
&MESH ID='Mesh01_0_1_3', IJK=85,9,9, XB=-0.300000,8.200000,-1.000000,-0.100000,0.800000,1.700000, MPI_PROCESS=8 /
&MESH ID='Mesh01_0_1_4', IJK=85,9,9, XB=-0.300000,8.200000,-1.000000,-0.100000,1.700000,2.600000, MPI_PROCESS=9 /
&MESH ID='Mesh01_0_2_0', IJK=85,9,10, XB=-0.300000,8.200000,-0.100000,0.800000,-2.200000,-1.200000, MPI_PROCESS=10 /
&MESH ID='Mesh01_0_2_1', IJK=85,9,10, XB=-0.300000,8.200000,-0.100000,0.800000,-1.200000,-0.200000, MPI_PROCESS=11 /
&MESH ID='Mesh01_0_2_2', IJK=85,9,10, XB=-0.300000,8.200000,-0.100000,0.800000,-0.200000,0.800000, MPI_PROCESS=12 /
&MESH ID='Mesh01_0_2_3', IJK=85,9,9, XB=-0.300000,8.200000,-0.100000,0.800000,0.800000,1.700000, MPI_PROCESS=13 /
&MESH ID='Mesh01_0_2_4', IJK=85,9,9, XB=-0.300000,8.200000,-0.100000,0.800000,1.700000,2.600000, MPI_PROCESS=14 /
&MESH ID='Mesh01_0_3_0', IJK=85,9,10, XB=-0.300000,8.200000,0.800000,1.700000,-2.200000,-1.200000, MPI_PROCESS=15 /
&MESH ID='Mesh01_0_3_1', IJK=85,9,10, XB=-0.300000,8.200000,0.800000,1.700000,-1.200000,-0.200000, MPI_PROCESS=16 /
&MESH ID='Mesh01_0_3_2', IJK=85,9,10, XB=-0.300000,8.200000,0.800000,1.700000,-0.200000,0.800000, MPI_PROCESS=17 /
&MESH ID='Mesh01_0_3_3', IJK=85,9,9, XB=-0.300000,8.200000,0.800000,1.700000,0.800000,1.700000, MPI_PROCESS=18 /
&MESH ID='Mesh01_0_3_4', IJK=85,9,9, XB=-0.300000,8.200000,0.800000,1.700000,1.700000,2.600000, MPI_PROCESS=19 /
&MESH ID='Mesh02_1_0', IJK=36,18,32, XB=8.200000,10.100000,-1.900000,-1.000000,-2.200000,-0.600000, MPI_PROCESS=20 /
&MESH ID='Mesh02_1_1', IJK=36,18,32, XB=8.200000,10.100000,-1.000000,-0.100000,-2.200000,-0.600000, MPI_PROCESS=21 /
&MESH ID='Mesh02_1_2', IJK=36,18,32, XB=8.200000,10.100000,-0.100000,0.800000,-2.200000,-0.600000, MPI_PROCESS=22 /
&MESH ID='Mesh02_1_3', IJK=36,18,32, XB=8.200000,10.100000,0.800000,1.700000,-2.200000,-0.600000, MPI_PROCESS=23 /
&MESH ID='Mesh02_2_0', IJK=36,18,32, XB=8.200000,10.100000,-1.900000,-1.000000,-0.600000,1.000000, MPI_PROCESS=24 /
&MESH ID='Mesh02_2_1', IJK=36,18,32, XB=8.200000,10.100000,-1.000000,-0.100000,-0.600000,1.000000, MPI_PROCESS=25 /
&MESH ID='Mesh02_2_2', IJK=36,18,32, XB=8.200000,10.100000,-0.100000,0.800000,-0.600000,1.000000, MPI_PROCESS=26 /
&MESH ID='Mesh02_2_3', IJK=36,18,32, XB=8.200000,10.100000,0.800000,1.700000,-0.600000,1.000000, MPI_PROCESS=27 /
&MESH ID='Mesh02_3_0', IJK=36,18,32, XB=8.200000,10.100000,-1.900000,-1.000000,1.000000,2.600000, MPI_PROCESS=28 /
&MESH ID='Mesh02_3_1', IJK=36,18,32, XB=8.200000,10.100000,-1.000000,-0.100000,1.000000,2.600000, MPI_PROCESS=29 /
&MESH ID='Mesh02_3_2', IJK=36,18,32, XB=8.200000,10.100000,-0.100000,0.800000,1.000000,2.600000, MPI_PROCESS=30 /
&MESH ID='Mesh02_3_3', IJK=36,18,32, XB=8.200000,10.100000,0.800000,1.700000,1.000000,2.600000, MPI_PROCESS=31 /


&SPEC ID='SFPE POLYURETHANE_GM27_fuel', FORMULA='C1.0H1.7O0.3N0.08'/

&REAC ID='SIMPLE_BURN', FUEL='SFUEL', C=1.0, H=1.7, O=0.3, N=0.08,
      HEAT_OF_COMBUSTION=2.0E4, CO_YIELD=0.03, SOOT_YIELD=0.10, RADIATIVE_FRACTION=0.35/


&MATL ID='EBLXW',
      SPECIFIC_HEAT=1.0,
      CONDUCTIVITY=0.35,
      DENSITY=2540.0,
      EMISSIVITY=0.9/
&MATL ID='BXSSL',
      SPECIFIC_HEAT=1.46,
      CONDUCTIVITY=0.19,
      DENSITY=1190.0,
      EMISSIVITY=0.9/
&MATL ID='NLZW',
      SPECIFIC_HEAT=1.7,
      CONDUCTIVITY=0.25,
      DENSITY=1140.0,
      EMISSIVITY=0.9/
&MATL ID='HYBLXW',
      SPECIFIC_HEAT=1.0,
      CONDUCTIVITY=0.35,
      DENSITY=2540.0,
      EMISSIVITY=0.9/
&MATL ID='JAZPM',
      SPECIFIC_HEAT=1.4,
      CONDUCTIVITY=0.03,
      DENSITY=35.0,
      EMISSIVITY=0.9/
&MATL ID='LHJ2024',
      SPECIFIC_HEAT=0.875,
      CONDUCTIVITY=60.0,
      DENSITY=2780.0,
      EMISSIVITY=0.9/
&MATL ID='LHJ5052',
      SPECIFIC_HEAT=0.88,
      CONDUCTIVITY=70.0,
      DENSITY=2680.0,
      EMISSIVITY=0.9/
&MATL ID='LHJ7075',
      SPECIFIC_HEAT=0.96,
      CONDUCTIVITY=65.0,
      DENSITY=2810.0,
      EMISSIVITY=0.9/
&MATL ID='LHJ6061', SPECIFIC_HEAT=0.896, CONDUCTIVITY=167.0, DENSITY=2700.0, EMISSIVITY=0.9/
&MATL ID='PVCSL', SPECIFIC_HEAT=0.84, CONDUCTIVITY=0.19, DENSITY=1449.0, EMISSIVITY=0.9/
&MATL ID='CRXJ', SPECIFIC_HEAT=1.12, CONDUCTIVITY=0.19, DENSITY=1500.0, EMISSIVITY=0.9/


&SURF ID='E-玻璃纤维',
      RGB=153,153,153,
      TRANSPARENCY=0.729412,
      MATL_ID(1,1)='EBLXW',
      MATL_MASS_FRACTION(1,1)=1.0,
      THICKNESS(1)=0.004000,
      HRRPUA=75.0,
      IGNITION_TEMPERATURE=400/
&SURF ID='丙烯酸塑料',
      RGB=146,202,166,
      MATL_ID(1,1)='BXSSL',
      MATL_MASS_FRACTION(1,1)=1.0,
      THICKNESS(1)=0.075,
      HRRPUA=250.0,
      IGNITION_TEMPERATURE=250/
&SURF ID='尼龙织物_床垫',
      RGB=146,26,223,
      TRANSPARENCY=0.886275,
      MATL_ID(1,1)='NLZW',
      MATL_MASS_FRACTION(1,1)=1.0,
      THICKNESS(1)=0.12,
      IGNITION_TEMPERATURE=250,
      HRRPUA=400.0,
      RAMP_Q='Q_RAMP',
      BURN_AWAY=.FALSE./
&SURF ID='尼龙织物_窗帘3mm',
      RGB=146,26,223,
      TRANSPARENCY=0.886275,
      MATL_ID(1,1)='NLZW',
      MATL_MASS_FRACTION(1,1)=1.0,
      THICKNESS(1)=0.03,
      IGNITION_TEMPERATURE=250,
      HRRPUA=400.0,
      RAMP_Q='Q_RAMP',
      BURN_AWAY=.FALSE./
&SURF ID='环氧玻璃纤维',
      RGB=255,153,153,
      TRANSPARENCY=0.866667,
      MATL_ID(1,1)='HYBLXW',
      MATL_MASS_FRACTION(1,1)=1.0,
      THICKNESS(1)=0.03,
      IGNITION_TEMPERATURE=350,
      HRRPUA=350.0,
      RAMP_Q='Q_RAMP'/
&SURF ID='聚氨酯泡沫',
      RGB=146,234,117,
      TRANSPARENCY=0.827451,
      MATL_ID(1,1)='JAZPM',
      MATL_MASS_FRACTION(1,1)=1.0,
      THICKNESS(1)=0.15,
      IGNITION_TEMPERATURE=250,
      HRRPUA=450.0,
      RAMP_Q='Q_RAMP',
      BURN_AWAY=.FALSE./
&SURF ID='铝合金2024',
      RGB=153,153,153,
      TRANSPARENCY=0.54902,
      MATL_ID(1,1)='LHJ2024',
      MATL_MASS_FRACTION(1,1)=1.0,
      THICKNESS(1)=0.004000/
&SURF ID='铝合金5052',
      RGB=255,255,51,
      TRANSPARENCY=0.827451,
      MATL_ID(1,1)='LHJ5052',
      MATL_MASS_FRACTION(1,1)=1.0,
      THICKNESS(1)=1.5E-3/
&SURF ID='铝合金7075',
      RGB=153,153,0,
      TRANSPARENCY=0.819608,
      MATL_ID(1,1)='LHJ7075',
      MATL_MASS_FRACTION(1,1)=1.0,
      THICKNESS(1)=0.004000/
&SURF ID='铝合金7075_氧气瓶',
      RGB=0,255,153,
      MATL_ID(1,1)='LHJ7075',
      MATL_MASS_FRACTION(1,1)=1.0,
      THICKNESS(1)=5.0E-3/
&SURF ID='导航子系统',
      RGB=204,255,51,
      MATL_ID(1,1)='LHJ6061',
      MATL_MASS_FRACTION(1,1)=1.0,
      THICKNESS(1)=3.0E-3/
&SURF ID='任务子系统',
      RGB=204,255,51,
      MATL_ID(1,1)='LHJ6061',
      MATL_MASS_FRACTION(1,1)=1.0,
      THICKNESS(1)=3.0E-3/
&SURF ID='显示子系统',
      RGB=204,255,51,
      MATL_ID(1,1)='LHJ6061',
      MATL_MASS_FRACTION(1,1)=1.0,
      THICKNESS(1)=3.0E-3/
&SURF ID='通信子系统',
      RGB=204,255,51,
      MATL_ID(1,1)='LHJ6061',
      MATL_MASS_FRACTION(1,1)=1.0,
      THICKNESS(1)=3.0E-3/
&SURF ID='电池',
      RGB=204,255,51,
      MATL_ID(1,1)='LHJ6061',
      MATL_MASS_FRACTION(1,1)=1.0,
      THICKNESS(1)=3.0E-3/
&SURF ID='电力传输子系统',
      RGB=204,255,51,
      HRRPUA=200.0,
      IGNITION_TEMPERATURE=468.6,
      MATL_ID(1,1)='PVCSL',
      MATL_MASS_FRACTION(1,1)=1.0,
      THICKNESS(1)=1.0E-3, RAMP_Q='Q_RAMP'/
&SURF ID='操纵子系统',
      RGB=204,255,51,
      HRRPUA=180.0,
      IGNITION_TEMPERATURE=410.0,
      MATL_ID(1,1)='CRXJ',
      MATL_MASS_FRACTION(1,1)=1.0,
      THICKNESS(1)=2.0E-3, RAMP_Q='Q_RAMP'/


! U06 finite-volume seat voxels generated from the source STL
&OBST ID='U06_STL_FILL_0000', XB=5.700000,6.200000,-0.800000,-0.700000,-1.100000,-1.000000, SURF_ID='聚氨酯泡沫' /
&OBST ID='U06_STL_FILL_0001', XB=6.100000,6.200000,-0.800000,-0.700000,-1.000000,-0.900000, SURF_ID='聚氨酯泡沫' /
&OBST ID='U06_STL_FILL_0002', XB=6.100000,6.200000,-0.800000,-0.700000,-0.900000,-0.800000, SURF_ID='聚氨酯泡沫' /
&OBST ID='U06_STL_FILL_0003', XB=6.100000,6.200000,-0.800000,-0.700000,-0.800000,-0.700000, SURF_ID='聚氨酯泡沫' /
&OBST ID='U06_STL_FILL_0004', XB=6.100000,6.200000,-0.800000,-0.700000,-0.700000,-0.600000, SURF_ID='聚氨酯泡沫' /
&OBST ID='U06_STL_FILL_0005', XB=6.100000,6.200000,-0.800000,-0.700000,-0.600000,-0.500000, SURF_ID='聚氨酯泡沫' /
&OBST ID='U06_STL_FILL_0006', XB=6.100000,6.200000,-0.800000,-0.700000,-0.500000,-0.400000, SURF_ID='聚氨酯泡沫' /
&OBST ID='U06_STL_FILL_0007', XB=6.100000,6.200000,-0.800000,-0.700000,-0.400000,-0.300000, SURF_ID='聚氨酯泡沫' /
&OBST ID='U06_STL_FILL_0008', XB=6.100000,6.200000,-0.800000,-0.700000,-0.300000,-0.200000, SURF_ID='聚氨酯泡沫' /
&OBST ID='U06_STL_FILL_0009', XB=6.100000,6.300000,-0.800000,-0.700000,-0.200000,-0.100000, SURF_ID='聚氨酯泡沫' /
&OBST ID='U06_STL_FILL_0010', XB=6.100000,6.300000,-0.800000,-0.700000,-0.100000,0.000000, SURF_ID='聚氨酯泡沫' /
&OBST ID='U06_STL_FILL_0011', XB=3.400000,3.800000,-0.800000,-0.700000,0.400000,0.500000, SURF_ID='聚氨酯泡沫' /
&OBST ID='U06_STL_FILL_0012', XB=7.600000,8.100000,-0.800000,-0.700000,0.400000,0.500000, SURF_ID='聚氨酯泡沫' /
&OBST ID='U06_STL_FILL_0013', XB=3.800000,4.000000,-0.800000,-0.700000,1.300000,1.400000, SURF_ID='聚氨酯泡沫' /
&OBST ID='U06_STL_FILL_0014', XB=7.500000,7.600000,-0.800000,-0.700000,1.300000,1.400000, SURF_ID='聚氨酯泡沫' /
&OBST ID='U06_STL_FILL_0015', XB=3.800000,4.000000,-0.800000,-0.700000,1.400000,1.500000, SURF_ID='聚氨酯泡沫' /
&OBST ID='U06_STL_FILL_0016', XB=7.500000,7.600000,-0.800000,-0.700000,1.400000,1.500000, SURF_ID='聚氨酯泡沫' /
&OBST ID='U06_STL_FILL_0017', XB=5.700000,6.200000,-0.700000,-0.600000,-1.100000,-1.000000, SURF_ID='聚氨酯泡沫' /
&OBST ID='U06_STL_FILL_0018', XB=6.100000,6.200000,-0.700000,-0.600000,-1.000000,-0.900000, SURF_ID='聚氨酯泡沫' /
&OBST ID='U06_STL_FILL_0019', XB=6.100000,6.200000,-0.700000,-0.600000,-0.900000,-0.800000, SURF_ID='聚氨酯泡沫' /
! ... 117 like lines cut
&OBST ID='A01.stl', XB=2.775558E-17,0.1,-0.1,0.1,-0.2,-0.2, SURF_ID='E-玻璃纤维'/ 
&OBST ID='A01.stl', XB=2.775558E-17,0.1,-0.1,0.1,0.2,0.2, SURF_ID='E-玻璃纤维'/ 
&OBST ID='A01.stl', XB=0.1,0.2,-0.1,0.1,-0.3,-0.3, SURF_ID='E-玻璃纤维'/ 
&OBST ID='A01.stl', XB=0.1,0.2,-0.2,-0.1,-0.2,-0.2, SURF_ID='E-玻璃纤维'/ 
&OBST ID='A01.stl', XB=0.1,0.2,0.1,0.2,-0.2,-0.2, SURF_ID='E-玻璃纤维'/ 
&OBST ID='A01.stl', XB=0.1,0.2,-0.2,-0.1,0.2,0.2, SURF_ID='E-玻璃纤维'/ 
&OBST ID='A01.stl', XB=0.1,0.2,0.1,0.2,0.2,0.2, SURF_ID='E-玻璃纤维'/ 
&OBST ID='A01.stl', XB=0.1,0.2,-0.1,0.1,0.3,0.3, SURF_ID='E-玻璃纤维'/ 
&OBST ID='A01.stl', XB=0.2,0.3,-0.2,-0.1,-0.3,-0.3, SURF_ID='E-玻璃纤维'/ 
&OBST ID='A01.stl', XB=0.2,0.3,0.1,0.2,-0.3,-0.3, SURF_ID='E-玻璃纤维'/ 
&OBST ID='A01.stl', XB=0.2,0.3,-0.3,-0.2,-0.2,-0.2, SURF_ID='E-玻璃纤维'/ 
&OBST ID='A01.stl', XB=0.2,0.3,0.2,0.3,-0.2,-0.2, SURF_ID='E-玻璃纤维'/ 
&OBST ID='A01.stl', XB=0.2,0.3,-0.3,-0.2,0.2,0.2, SURF_ID='E-玻璃纤维'/ 
&OBST ID='A01.stl', XB=0.2,0.3,0.2,0.3,0.2,0.2, SURF_ID='E-玻璃纤维'/ 
&OBST ID='A01.stl', XB=0.2,0.3,-0.2,-0.1,0.3,0.3, SURF_ID='E-玻璃纤维'/ 
&OBST ID='A01.stl', XB=0.2,0.3,0.1,0.2,0.3,0.3, SURF_ID='E-玻璃纤维'/ 
&OBST ID='A01.stl', XB=0.2,0.4,-0.1,0.1,-0.4,-0.4, SURF_ID='E-玻璃纤维'/ 
&OBST ID='A01.stl', XB=0.2,0.4,-0.1,0.1,0.4,0.4, SURF_ID='E-玻璃纤维'/ 
&OBST ID='A01.stl', XB=0.3,0.4,-0.2,-0.1,-0.4,-0.4, SURF_ID='E-玻璃纤维'/ 
&OBST ID='A01.stl', XB=0.3,0.4,0.1,0.2,-0.4,-0.4, SURF_ID='E-玻璃纤维'/ 
! ... 557 like lines cut
&OBST ID='A02.stl', XB=1.4,1.5,-0.3,-0.2,-0.9,-0.9, SURF_ID='铝合金2024'/ 
&OBST ID='A02.stl', XB=1.4,1.5,0.2,0.3,-0.9,-0.9, SURF_ID='铝合金2024'/ 
&OBST ID='A02.stl', XB=1.4,1.5,-0.5,-0.4,-0.8,-0.8, SURF_ID='铝合金2024'/ 
&OBST ID='A02.stl', XB=1.4,1.5,0.4,0.5,-0.8,-0.8, SURF_ID='铝合金2024'/ 
&OBST ID='A02.stl', XB=1.4,1.5,-0.6,-0.5,-0.7,-0.7, SURF_ID='铝合金2024'/ 
&OBST ID='A02.stl', XB=1.4,1.5,0.5,0.6,-0.7,-0.7, SURF_ID='铝合金2024'/ 
&OBST ID='A02.stl', XB=1.4,1.5,-0.7,-0.6,-0.6,-0.6, SURF_ID='铝合金2024'/ 
&OBST ID='A02.stl', XB=1.4,1.5,0.6,0.7,-0.6,-0.6, SURF_ID='铝合金2024'/ 
&OBST ID='A02.stl', XB=1.4,1.5,-0.9,-0.8,-0.3,-0.3, SURF_ID='铝合金2024'/ 
&OBST ID='A02.stl', XB=1.4,1.5,0.8,0.9,-0.3,-0.3, SURF_ID='铝合金2024'/ 
&OBST ID='A02.stl', XB=1.4,1.5,-0.9,-0.8,0.5,0.5, SURF_ID='铝合金2024'/ 
&OBST ID='A02.stl', XB=1.4,1.5,0.8,0.9,0.5,0.5, SURF_ID='铝合金2024'/ 
&OBST ID='A02.stl', XB=1.4,1.5,-0.6,-0.5,0.8,0.8, SURF_ID='铝合金2024'/ 
&OBST ID='A02.stl', XB=1.4,1.5,0.5,0.6,0.8,0.8, SURF_ID='铝合金2024'/ 
&OBST ID='A02.stl', XB=1.4,1.5,-0.5,-0.3,0.9,0.9, SURF_ID='铝合金2024'/ 
&OBST ID='A02.stl', XB=1.4,1.5,0.3,0.5,0.9,0.9, SURF_ID='铝合金2024'/ 
&OBST ID='A02.stl', XB=1.4,1.6,-0.1,0.1,-1.0,-1.0, SURF_ID='铝合金2024'/ 
&OBST ID='A02.stl', XB=1.4,1.6,-0.4,-0.3,-0.9,-0.9, SURF_ID='铝合金2024'/ 
&OBST ID='A02.stl', XB=1.4,1.6,0.3,0.4,-0.9,-0.9, SURF_ID='铝合金2024'/ 
&OBST ID='A02.stl', XB=1.4,1.6,-0.8,-0.7,-0.5,-0.5, SURF_ID='铝合金2024'/ 
! ... 2290 like lines cut
&OBST ID='A03.stl', XB=1.7,1.8,-0.4,-0.3,1.1,1.1, SURF_ID='丙烯酸塑料'/ 
&OBST ID='A03.stl', XB=1.7,1.8,0.3,0.4,1.1,1.1, SURF_ID='丙烯酸塑料'/ 
&OBST ID='A03.stl', XB=1.7,1.9,-0.3,0.3,1.2,1.2, SURF_ID='丙烯酸塑料'/ 
&OBST ID='A03.stl', XB=1.8,1.9,-0.4,-0.3,1.2,1.2, SURF_ID='丙烯酸塑料'/ 
&OBST ID='A03.stl', XB=1.8,1.9,0.3,0.4,1.2,1.2, SURF_ID='丙烯酸塑料'/ 
&OBST ID='A03.stl', XB=1.9,2.0,-0.3,0.3,1.3,1.3, SURF_ID='丙烯酸塑料'/ 
&OBST ID='A03.stl', XB=1.9,2.1,-0.5,-0.4,1.2,1.2, SURF_ID='丙烯酸塑料'/ 
&OBST ID='A03.stl', XB=1.9,2.1,0.4,0.5,1.2,1.2, SURF_ID='丙烯酸塑料'/ 
&OBST ID='A03.stl', XB=1.9,2.1,-0.4,-0.3,1.3,1.3, SURF_ID='丙烯酸塑料'/ 
&OBST ID='A03.stl', XB=1.9,2.1,0.3,0.4,1.3,1.3, SURF_ID='丙烯酸塑料'/ 
&OBST ID='A03.stl', XB=2.0,2.1,-0.2,0.2,1.4,1.4, SURF_ID='丙烯酸塑料'/ 
&OBST ID='A03.stl', XB=2.0,2.2,-0.6,-0.5,1.2,1.2, SURF_ID='丙烯酸塑料'/ 
&OBST ID='A03.stl', XB=2.0,2.2,0.5,0.6,1.2,1.2, SURF_ID='丙烯酸塑料'/ 
&OBST ID='A03.stl', XB=2.1,2.2,-0.7,-0.6,1.1,1.1, SURF_ID='丙烯酸塑料'/ 
&OBST ID='A03.stl', XB=2.1,2.2,0.6,0.7,1.1,1.1, SURF_ID='丙烯酸塑料'/ 
&OBST ID='A03.stl', XB=2.1,2.2,-0.5,-0.4,1.3,1.3, SURF_ID='丙烯酸塑料'/ 
&OBST ID='A03.stl', XB=2.1,2.2,0.4,0.5,1.3,1.3, SURF_ID='丙烯酸塑料'/ 
&OBST ID='A03.stl', XB=2.1,2.2,-0.4,-0.3,1.4,1.4, SURF_ID='丙烯酸塑料'/ 
&OBST ID='A03.stl', XB=2.1,2.2,0.3,0.4,1.4,1.4, SURF_ID='丙烯酸塑料'/ 
&OBST ID='A03.stl', XB=2.1,2.2,-0.2,0.2,1.5,1.5, SURF_ID='丙烯酸塑料'/ 
! ... 327 like lines cut
&OBST ID='C01.stl', XB=1.6,3.8,-1.0,1.0,8.604228E-16,8.604228E-16, SURF_ID='铝合金7075'/ 
&OBST ID='C01.stl', XB=1.6,6.3,-0.3,0.3,0.1,0.1, SURF_ID='铝合金7075'/ 
&OBST ID='C01.stl', XB=1.6,8.2,-1.0,-0.3,0.1,0.1, SURF_ID='铝合金7075'/ 
&OBST ID='C01.stl', XB=1.6,8.2,0.3,1.0,0.1,0.1, SURF_ID='铝合金7075'/ 
&OBST ID='C01.stl', XB=1.8,3.8,-1.1,-1.0,8.604228E-16,8.604228E-16, SURF_ID='铝合金7075'/ 
&OBST ID='C01.stl', XB=1.8,3.8,1.0,1.1,8.604228E-16,8.604228E-16, SURF_ID='铝合金7075'/ 
&OBST ID='C01.stl', XB=1.8,8.2,-1.1,-1.0,0.1,0.1, SURF_ID='铝合金7075'/ 
&OBST ID='C01.stl', XB=1.8,8.2,1.0,1.1,0.1,0.1, SURF_ID='铝合金7075'/ 
&OBST ID='C01.stl', XB=2.1,8.2,-1.2,-1.1,0.1,0.1, SURF_ID='铝合金7075'/ 
&OBST ID='C01.stl', XB=2.1,8.2,1.1,1.2,0.1,0.1, SURF_ID='铝合金7075'/ 
&OBST ID='C01.stl', XB=2.2,3.8,-1.2,-1.1,8.604228E-16,8.604228E-16, SURF_ID='铝合金7075'/ 
&OBST ID='C01.stl', XB=2.2,3.8,1.1,1.2,8.604228E-16,8.604228E-16, SURF_ID='铝合金7075'/ 
&OBST ID='C01.stl', XB=2.5,8.2,-1.3,-1.2,0.1,0.1, SURF_ID='铝合金7075'/ 
&OBST ID='C01.stl', XB=2.5,8.2,1.2,1.3,0.1,0.1, SURF_ID='铝合金7075'/ 
&OBST ID='C01.stl', XB=2.6,3.8,-1.3,-1.2,8.604228E-16,8.604228E-16, SURF_ID='铝合金7075'/ 
&OBST ID='C01.stl', XB=2.6,3.8,1.2,1.3,8.604228E-16,8.604228E-16, SURF_ID='铝合金7075'/ 
&OBST ID='C01.stl', XB=3.0,3.8,-1.4,-1.3,8.604228E-16,8.604228E-16, SURF_ID='铝合金7075'/ 
&OBST ID='C01.stl', XB=3.0,3.8,1.3,1.4,8.604228E-16,8.604228E-16, SURF_ID='铝合金7075'/ 
&OBST ID='C01.stl', XB=3.0,8.2,-1.4,-1.3,0.1,0.1, SURF_ID='铝合金7075'/ 
&OBST ID='C01.stl', XB=3.0,8.2,1.3,1.4,0.1,0.1, SURF_ID='铝合金7075'/ 
! ... 10 like lines cut
&OBST ID='C01.stl', XB=3.8,3.9,-1.5,-1.4,-0.4,-0.4/ 
&OBST ID='C01.stl', XB=3.8,3.9,1.4,1.5,-0.4,-0.4/ 
&OBST ID='C01.stl', XB=3.8,8.2,-0.9,0.9,-1.4,-1.4, SURF_ID='铝合金7075'/ 
&OBST ID='C01.stl', XB=3.9,4.0,-1.5,-1.4,-0.5,-0.5/ 
&OBST ID='C01.stl', XB=3.9,4.0,1.4,1.5,-0.5,-0.5/ 
&OBST ID='C01.stl', XB=3.9,4.4,-1.1,-1.0,-1.3,-1.3, SURF_ID='铝合金7075'/ 
&OBST ID='C01.stl', XB=3.9,4.4,1.0,1.1,-1.3,-1.3, SURF_ID='铝合金7075'/ 
&OBST ID='C01.stl', XB=3.9,4.4,-1.2,-1.1,-1.2,-1.2, SURF_ID='铝合金7075'/ 
&OBST ID='C01.stl', XB=3.9,4.4,1.1,1.2,-1.2,-1.2, SURF_ID='铝合金7075'/ 
&OBST ID='C01.stl', XB=3.9,8.2,-1.0,-0.9,-1.4,-1.4, SURF_ID='铝合金7075'/ 
&OBST ID='C01.stl', XB=3.9,8.2,0.9,1.0,-1.4,-1.4, SURF_ID='铝合金7075'/ 
&OBST ID='C01.stl', XB=4.4,4.9,-1.2,-1.1,-1.3,-1.3, SURF_ID='铝合金7075'/ 
&OBST ID='C01.stl', XB=4.4,4.9,1.1,1.2,-1.3,-1.3, SURF_ID='铝合金7075'/ 
&OBST ID='C01.stl', XB=4.4,8.2,-1.1,-1.0,-1.4,-1.4, SURF_ID='铝合金7075'/ 
&OBST ID='C01.stl', XB=4.4,8.2,1.0,1.1,-1.4,-1.4, SURF_ID='铝合金7075'/ 
&OBST ID='C01.stl', XB=4.9,8.2,-1.2,-1.1,-1.4,-1.4, SURF_ID='铝合金7075'/ 
&OBST ID='C01.stl', XB=4.9,8.2,1.1,1.2,-1.4,-1.4, SURF_ID='铝合金7075'/ 
&OBST ID='C01.stl', XB=5.5,8.2,-1.3,-1.2,-1.4,-1.4, SURF_ID='铝合金7075'/ 
&OBST ID='C01.stl', XB=5.5,8.2,1.2,1.3,-1.4,-1.4, SURF_ID='铝合金7075'/ 
&OBST ID='C01.stl', XB=6.3,8.2,-1.4,-1.3,-1.4,-1.4, SURF_ID='铝合金7075'/ 
&OBST ID='C01.stl', XB=6.3,8.2,1.3,1.4,-1.4,-1.4, SURF_ID='铝合金7075'/ 
&OBST ID='C01.stl', XB=6.9,8.2,-0.3,0.3,0.1,0.1, SURF_ID='铝合金7075'/ 
&OBST ID='C01.stl', XB=3.8,3.9,-0.9,-0.9,-1.4,-1.3, SURF_ID='铝合金7075'/ 
&OBST ID='C01.stl', XB=3.8,3.9,0.9,0.9,-1.4,-1.3, SURF_ID='铝合金7075'/ 
&OBST ID='C01.stl', XB=3.8,3.9,-1.0,-1.0,-1.3,-1.2, SURF_ID='铝合金7075'/ 
! ... 5 like lines cut
&OBST ID='C01.stl', XB=3.8,3.9,-1.4,-1.4,-0.6,-0.4/ 
&OBST ID='C01.stl', XB=3.8,3.9,1.4,1.4,-0.6,-0.4/ 
&OBST ID='C01.stl', XB=3.9,4.0,-1.2,-1.2,-1.2,-1.0, SURF_ID='铝合金7075'/ 
&OBST ID='C01.stl', XB=3.9,4.0,1.2,1.2,-1.2,-1.0, SURF_ID='铝合金7075'/ 
&OBST ID='C01.stl', XB=3.9,4.4,-1.0,-1.0,-1.4,-1.3, SURF_ID='铝合金7075'/ 
&OBST ID='C01.stl', XB=3.9,4.4,1.0,1.0,-1.4,-1.3, SURF_ID='铝合金7075'/ 
&OBST ID='C01.stl', XB=3.9,4.4,-1.1,-1.1,-1.3,-1.2, SURF_ID='铝合金7075'/ 
&OBST ID='C01.stl', XB=3.9,4.4,1.1,1.1,-1.3,-1.2, SURF_ID='铝合金7075'/ 
&OBST ID='C01.stl', XB=4.0,4.4,-1.2,-1.2,-1.2,-1.1, SURF_ID='铝合金7075'/ 
&OBST ID='C01.stl', XB=4.0,4.4,1.2,1.2,-1.2,-1.1, SURF_ID='铝合金7075'/ 
&OBST ID='C01.stl', XB=4.4,4.5,-1.2,-1.2,-1.3,-1.1, SURF_ID='铝合金7075'/ 
&OBST ID='C01.stl', XB=4.4,4.5,1.2,1.2,-1.3,-1.1, SURF_ID='铝合金7075'/ 
&OBST ID='C01.stl', XB=4.4,4.9,-1.1,-1.1,-1.4,-1.3, SURF_ID='铝合金7075'/ 
&OBST ID='C01.stl', XB=4.4,4.9,1.1,1.1,-1.4,-1.3, SURF_ID='铝合金7075'/ 
&OBST ID='C01.stl', XB=4.5,4.9,-1.2,-1.2,-1.3,-1.2, SURF_ID='铝合金7075'/ 
&OBST ID='C01.stl', XB=4.5,4.9,1.2,1.2,-1.3,-1.2, SURF_ID='铝合金7075'/ 
&OBST ID='C01.stl', XB=4.9,5.2,-1.2,-1.2,-1.4,-1.3, SURF_ID='铝合金7075'/ 
&OBST ID='C01.stl', XB=4.9,5.2,1.2,1.2,-1.4,-1.3, SURF_ID='铝合金7075'/ 
&OBST ID='C01.stl', XB=1.6,1.6,-1.0,-0.9,8.604228E-16,0.4, SURF_ID='铝合金7075'/ 
&OBST ID='C01.stl', XB=1.6,1.6,0.9,1.0,8.604228E-16,0.4, SURF_ID='铝合金7075'/ 
&OBST ID='C01.stl', XB=1.6,1.6,-0.9,-0.8,8.604228E-16,0.6, SURF_ID='铝合金7075'/ 
&OBST ID='C01.stl', XB=1.6,1.6,0.8,0.9,8.604228E-16,0.6, SURF_ID='铝合金7075'/ 
! ... 32 like lines cut
&OBST ID='C01.stl', XB=3.9,3.9,-1.5,-1.4,-0.5,-0.4/ 
&OBST ID='C01.stl', XB=3.9,3.9,1.4,1.5,-0.5,-0.4/ 
&OBST ID='C01.stl', XB=4.4,4.4,-1.1,-1.0,-1.4,-1.3, SURF_ID='铝合金7075'/ 
&OBST ID='C01.stl', XB=4.4,4.4,1.0,1.1,-1.4,-1.3, SURF_ID='铝合金7075'/ 
&OBST ID='C01.stl', XB=4.4,4.4,-1.2,-1.1,-1.3,-1.2, SURF_ID='铝合金7075'/ 
&OBST ID='C01.stl', XB=4.4,4.4,1.1,1.2,-1.3,-1.2, SURF_ID='铝合金7075'/ 
&OBST ID='C01.stl', XB=4.9,4.9,-1.2,-1.1,-1.4,-1.3, SURF_ID='铝合金7075'/ 
&OBST ID='C01.stl', XB=4.9,4.9,1.1,1.2,-1.4,-1.3, SURF_ID='铝合金7075'/ 
&OBST ID='C01.stl', XB=8.2,8.886111,-1.4,1.4,-1.35,-1.35, SURF_ID='铝合金7075'/ 
&OBST ID='C01.stl', XB=8.2,9.15,-1.5,1.5,0.15,0.15, SURF_ID='铝合金7075'/ 
&OBST ID='C01.stl', XB=8.886111,8.886111,-0.75,0.75,-1.85,0.15, SURF_ID='铝合金7075'/ 
&OBST ID='C01.stl', XB=8.886111,8.886111,-0.9,-0.75,-1.8,0.15, SURF_ID='铝合金7075'/ 
&OBST ID='C01.stl', XB=8.886111,8.886111,0.75,0.9,-1.8,0.15, SURF_ID='铝合金7075'/ 
&OBST ID='C01.stl', XB=8.886111,8.886111,-1.0,-0.9,-1.75,0.15, SURF_ID='铝合金7075'/ 
&OBST ID='C01.stl', XB=8.886111,8.886111,0.9,1.0,-1.75,0.15, SURF_ID='铝合金7075'/ 
&OBST ID='C01.stl', XB=8.886111,8.886111,-1.05,-1.0,-1.7,0.15, SURF_ID='铝合金7075'/ 
&OBST ID='C01.stl', XB=8.886111,8.886111,1.0,1.05,-1.7,0.15, SURF_ID='铝合金7075'/ 
&OBST ID='C01.stl', XB=8.886111,8.886111,-1.15,-1.05,-1.65,-0.1, SURF_ID='铝合金7075'/ 
&OBST ID='C01.stl', XB=8.886111,8.886111,1.05,1.15,-1.65,0.15, SURF_ID='铝合金7075'/ 
&OBST ID='C01.stl', XB=8.886111,8.886111,-1.2,-1.15,-1.6,0.15, SURF_ID='铝合金7075'/ 
&OBST ID='C01.stl', XB=8.886111,8.886111,1.15,1.2,-1.6,0.15, SURF_ID='铝合金7075'/ 
&OBST ID='C01.stl', XB=8.886111,8.886111,-1.25,-1.2,-1.55,0.15, SURF_ID='铝合金7075'/ 
! ... 78 like lines cut
&OBST ID='U01.stl', XB=2.0,2.1,-0.3,-0.2,1.0,1.0, SURF_ID='尼龙织物_窗帘3mm'/ 
&OBST ID='U01.stl', XB=2.0,2.1,0.2,0.3,1.0,1.0, SURF_ID='尼龙织物_窗帘3mm'/ 
&OBST ID='U01.stl', XB=2.0,2.1,-0.1,0.1,1.1,1.1, SURF_ID='尼龙织物_窗帘3mm'/ 
&OBST ID='U01.stl', XB=2.0,2.2,-0.2,-0.1,1.1,1.1, SURF_ID='尼龙织物_窗帘3mm'/ 
&OBST ID='U01.stl', XB=2.0,2.2,0.1,0.2,1.1,1.1, SURF_ID='尼龙织物_窗帘3mm'/ 
&OBST ID='U01.stl', XB=2.1,2.2,-0.4,-0.3,1.0,1.0, SURF_ID='尼龙织物_窗帘3mm'/ 
&OBST ID='U01.stl', XB=2.1,2.2,0.3,0.4,1.0,1.0, SURF_ID='尼龙织物_窗帘3mm'/ 
&OBST ID='U01.stl', XB=2.1,2.2,-0.3,-0.2,1.1,1.1, SURF_ID='尼龙织物_窗帘3mm'/ 
&OBST ID='U01.stl', XB=2.1,2.2,0.2,0.3,1.1,1.1, SURF_ID='尼龙织物_窗帘3mm'/ 
&OBST ID='U01.stl', XB=2.1,2.2,-0.1,0.1,1.2,1.2, SURF_ID='尼龙织物_窗帘3mm'/ 
&OBST ID='U01.stl', XB=2.2,2.3,-0.5,-0.4,1.0,1.0, SURF_ID='尼龙织物_窗帘3mm'/ 
&OBST ID='U01.stl', XB=2.2,2.3,0.4,0.5,1.0,1.0, SURF_ID='尼龙织物_窗帘3mm'/ 
&OBST ID='U01.stl', XB=2.2,2.3,-0.4,-0.3,1.1,1.1, SURF_ID='尼龙织物_窗帘3mm'/ 
&OBST ID='U01.stl', XB=2.2,2.3,0.3,0.4,1.1,1.1, SURF_ID='尼龙织物_窗帘3mm'/ 
&OBST ID='U01.stl', XB=2.2,2.3,-0.3,-0.1,1.2,1.2, SURF_ID='尼龙织物_窗帘3mm'/ 
&OBST ID='U01.stl', XB=2.2,2.3,0.1,0.3,1.2,1.2, SURF_ID='尼龙织物_窗帘3mm'/ 
&OBST ID='U01.stl', XB=2.2,2.3,-0.1,0.1,1.3,1.3, SURF_ID='尼龙织物_窗帘3mm'/ 
&OBST ID='U01.stl', XB=2.3,2.4,-0.6,-0.5,1.0,1.0, SURF_ID='尼龙织物_窗帘3mm'/ 
&OBST ID='U01.stl', XB=2.3,2.4,0.5,0.6,1.0,1.0, SURF_ID='尼龙织物_窗帘3mm'/ 
&OBST ID='U01.stl', XB=2.3,2.4,-0.5,-0.4,1.1,1.1, SURF_ID='尼龙织物_窗帘3mm'/ 
! ... 367 like lines cut
&OBST ID='U03.stl', XB=3.5,3.6,-1.0,-0.9,0.1,0.5, SURF_ID='铝合金7075_氧气瓶'/ 
&OBST ID='U03.stl', XB=3.5,3.6,0.9,1.0,0.1,0.5, SURF_ID='铝合金7075_氧气瓶'/ 
&OBST ID='U03.stl', XB=5.9,6.1,-1.1,-1.0,-1.4,-1.0, SURF_ID='铝合金7075_氧气瓶'/ 
&OBST ID='U03.stl', XB=5.9,6.1,1.0,1.1,-1.4,-1.0, SURF_ID='铝合金7075_氧气瓶'/ 
&OBST ID='U03.stl', XB=7.7,7.8,-1.0,-0.9,0.1,0.5, SURF_ID='铝合金7075_氧气瓶'/ 
&OBST ID='U03.stl', XB=7.7,7.8,0.9,1.0,0.1,0.5, SURF_ID='铝合金7075_氧气瓶'/ 
&OBST ID='U05.stl', XB=5.0,7.0,-1.3,-0.7,0.5,0.7, SURF_ID='尼龙织物_床垫'/ 
 
 
 
 
 
 
 
 
 
 
 
 
 
 
 
 
 
 
 
 
! ... 52 like lines cut
&OBST ID='U4.stl', XB=1.9,2.0,-0.3,0.3,0.8,1.1/ 
&OBST ID='U4.stl', XB=2.0,2.1,-0.4,-0.4,0.8,1.1/ 
&OBST ID='U4.stl', XB=2.0,2.1,0.4,0.4,0.8,1.1/ 
&OBST ID='U4.stl', XB=2.1,2.2,-0.6,-0.6,0.1,0.8/ 
&OBST ID='U4.stl', XB=2.1,2.2,0.6,0.6,0.1,0.8/ 
&OBST ID='U4.stl', XB=2.2,2.5,-0.7,-0.7,0.1,0.8/ 
&OBST ID='U4.stl', XB=2.2,2.5,0.7,0.7,0.1,0.8/ 
&OBST ID='U4.stl', XB=2.5,2.9,-0.8,-0.8,0.1,0.8/ 
&OBST ID='U4.stl', XB=2.5,2.9,0.8,0.8,0.1,0.8/ 
&OBST ID='U4.stl', XB=2.9,3.2,-0.9,-0.9,0.1,0.8/ 
&OBST ID='U4.stl', XB=2.9,3.2,0.9,0.9,0.1,0.8/ 
&OBST ID='U4.stl', XB=3.2,3.3,-1.0,-1.0,0.1,0.8/ 
&OBST ID='U4.stl', XB=3.2,3.3,1.0,1.0,0.1,0.8/ 
&OBST ID='U4.stl', XB=2.0,2.0,-0.4,-0.3,0.8,1.1/ 
&OBST ID='U4.stl', XB=2.0,2.0,0.3,0.4,0.8,1.1/ 
&OBST ID='U4.stl', XB=2.1,2.1,-0.6,0.6,0.1,0.8/ 
&OBST ID='U4.stl', XB=2.2,2.2,-0.7,-0.6,0.1,0.8/ 
&OBST ID='U4.stl', XB=2.2,2.2,0.6,0.7,0.1,0.8/ 
&OBST ID='U4.stl', XB=2.5,2.5,-0.8,-0.7,0.1,0.8/ 
&OBST ID='U4.stl', XB=2.5,2.5,0.7,0.8,0.1,0.8/ 
! ... 4 like lines cut
&OBST ID='U4.stl', XB=8.411111,8.516667,1.15,1.15,0.4,1.5, SURF_ID='环氧玻璃纤维'/ 
&OBST ID='U4.stl', XB=8.516667,8.622222,1.1,1.1,0.4,1.5, SURF_ID='环氧玻璃纤维'/ 
&OBST ID='U4.stl', XB=8.622222,8.727778,1.05,1.05,0.4,1.5, SURF_ID='环氧玻璃纤维'/ 
&OBST ID='U4.stl', XB=8.727778,8.833333,1.0,1.0,0.4,1.5, SURF_ID='环氧玻璃纤维'/ 
&OBST ID='U4.stl', XB=8.833333,8.938889,0.95,0.95,0.4,1.5, SURF_ID='环氧玻璃纤维'/ 
&OBST ID='U4.stl', XB=8.411111,8.411111,1.15,1.2,0.4,1.5, SURF_ID='环氧玻璃纤维'/ 
&OBST ID='U4.stl', XB=8.516667,8.516667,1.1,1.15,0.4,1.5, SURF_ID='环氧玻璃纤维'/ 
&OBST ID='U4.stl', XB=8.622222,8.622222,1.05,1.1,0.4,1.5, SURF_ID='环氧玻璃纤维'/ 
&OBST ID='U4.stl', XB=8.727778,8.727778,1.0,1.05,0.4,1.5, SURF_ID='环氧玻璃纤维'/ 
&OBST ID='U4.stl', XB=8.833333,8.833333,0.95,1.0,0.4,1.5, SURF_ID='环氧玻璃纤维'/ 
&OBST ID='U4.stl', XB=8.938889,8.938889,-0.95,0.95,0.4,1.5, SURF_ID='环氧玻璃纤维'/ 
&OBST ID='U4.stl', XB=5.2,5.3,-0.9,-0.8,-0.8,0.1/ 
&OBST ID='U4.stl', XB=5.2,5.3,0.8,0.9,-0.8,0.1/ 
&OBST ID='U4.stl', XB=5.0,5.2,-0.8,-0.8,-0.8,0.1/ 
&OBST ID='U4.stl', XB=5.0,5.2,0.8,0.8,-0.8,0.1/ 
&OBST ID='U4.stl', XB=5.3,5.5,-0.9,-0.9,-0.8,0.1/ 
&OBST ID='U4.stl', XB=5.3,5.5,0.9,0.9,-0.8,0.1/ 
&OBST ID='U4.stl', XB=5.5,5.8,-1.0,-1.0,-0.8,0.1/ 
&OBST ID='U4.stl', XB=5.5,5.8,1.0,1.0,-0.8,0.1/ 
&OBST ID='U4.stl', XB=5.0,5.0,-0.8,0.8,-0.8,0.1/ 
&OBST ID='U4.stl', XB=5.5,5.5,-1.0,-0.9,-0.8,0.1/ 
&OBST ID='U4.stl', XB=5.5,5.5,0.9,1.0,-0.8,0.1/ 
&OBST ID='H1.stl', XB=0.6,0.7,-0.3,0.2,0.4,0.5, SURF_ID='导航子系统'/ 
&OBST ID='H1.stl', XB=0.7,0.9,-0.3,0.2,0.4,0.6, SURF_ID='导航子系统'/ 
&OBST ID='H1.stl', XB=0.9,1.0,-0.3,0.2,0.5,0.6, SURF_ID='导航子系统'/ 
&OBST ID='H1.stl', XB=7.5,8.2,-0.9,0.9,-1.3,-1.0, SURF_ID='导航子系统'/ 
&OBST ID='H1.stl', XB=8.2,8.675,-0.9,0.9,-1.35,-1.05, SURF_ID='导航子系统'/ 
&OBST ID='H2.stl', XB=2.3,2.9,-1.0,-0.9,-0.6,-0.4, SURF_ID='任务子系统'/ 
&OBST ID='H2.stl', XB=2.4,2.6,-0.9,-0.8,-0.6,-0.4, SURF_ID='任务子系统'/ 
&OBST ID='H2.stl', XB=2.4,3.2,-1.1,-1.0,-0.6,-0.4, SURF_ID='任务子系统'/ 
&OBST ID='H2.stl', XB=2.7,3.5,-1.2,-1.1,-0.6,-0.4, SURF_ID='任务子系统'/ 
&OBST ID='H2.stl', XB=3.0,3.6,-1.3,-1.2,-0.6,-0.4, SURF_ID='任务子系统'/ 
&OBST ID='H2.stl', XB=3.3,3.5,-1.4,-1.3,-0.6,-0.4, SURF_ID='任务子系统'/ 
&OBST ID='H2.stl', XB=2.3,2.9,0.9,1.0,-0.6,-0.4, SURF_ID='任务子系统'/ 
&OBST ID='H2.stl', XB=2.4,2.6,0.8,0.9,-0.6,-0.4, SURF_ID='任务子系统'/ 
&OBST ID='H2.stl', XB=2.4,3.2,1.0,1.1,-0.6,-0.4, SURF_ID='任务子系统'/ 
&OBST ID='H2.stl', XB=2.7,3.5,1.1,1.2,-0.6,-0.4, SURF_ID='任务子系统'/ 
&OBST ID='H2.stl', XB=3.0,3.6,1.2,1.3,-0.6,-0.4, SURF_ID='任务子系统'/ 
&OBST ID='H2.stl', XB=3.3,3.5,1.3,1.4,-0.6,-0.4, SURF_ID='任务子系统'/ 
&OBST ID='H2.stl', XB=0.6,1.0,-0.5,0.4,-0.3,0.3, SURF_ID='任务子系统'/ 
&OBST ID='H2.stl', XB=0.9,1.1,-0.6,-0.5,-0.3,8.604228E-16, SURF_ID='任务子系统'/ 
&OBST ID='H2.stl', XB=1.0,1.1,-0.3,0.3,-0.3,0.4, SURF_ID='任务子系统'/ 
&OBST ID='H2.stl', XB=1.0,1.4,-0.5,-0.3,-0.3,0.4, SURF_ID='任务子系统'/ 
&OBST ID='H2.stl', XB=1.0,1.4,0.3,0.4,-0.3,0.4, SURF_ID='任务子系统'/ 
&OBST ID='H2.stl', XB=1.1,1.3,-0.3,0.3,-0.3,0.7, SURF_ID='任务子系统'/ 
&OBST ID='H2.stl', XB=1.3,1.4,-0.3,0.3,-0.3,0.4, SURF_ID='任务子系统'/ 
&OBST ID='H2.stl', XB=1.2,1.4,-0.7,-0.6,-0.3,8.604228E-16, SURF_ID='任务子系统'/ 
! ... 7 like lines cut
&OBST ID='H3.stl', XB=1.8,2.1,-0.6,0.6,0.1,0.1, SURF_ID='显示子系统'/ 
&OBST ID='H3.stl', XB=1.8,2.1,-0.6,0.6,0.8,0.8, SURF_ID='显示子系统'/ 
&OBST ID='H3.stl', XB=1.8,2.2,-0.7,-0.6,0.1,0.1, SURF_ID='显示子系统'/ 
&OBST ID='H3.stl', XB=1.8,2.2,0.6,0.7,0.1,0.1, SURF_ID='显示子系统'/ 
&OBST ID='H3.stl', XB=1.8,2.2,-0.7,-0.6,0.8,0.8, SURF_ID='显示子系统'/ 
&OBST ID='H3.stl', XB=1.8,2.2,0.6,0.7,0.8,0.8, SURF_ID='显示子系统'/ 
&OBST ID='H3.stl', XB=1.8,2.5,-0.8,-0.7,0.1,0.1, SURF_ID='显示子系统'/ 
&OBST ID='H3.stl', XB=1.8,2.5,0.7,0.8,0.1,0.1, SURF_ID='显示子系统'/ 
&OBST ID='H3.stl', XB=1.8,2.5,-0.8,-0.7,0.8,0.8, SURF_ID='显示子系统'/ 
&OBST ID='H3.stl', XB=1.8,2.5,0.7,0.8,0.8,0.8, SURF_ID='显示子系统'/ 
&OBST ID='H3.stl', XB=2.0,2.9,-0.9,-0.8,0.1,0.1, SURF_ID='显示子系统'/ 
&OBST ID='H3.stl', XB=2.0,2.9,0.8,0.9,0.1,0.1, SURF_ID='显示子系统'/ 
&OBST ID='H3.stl', XB=2.0,2.9,-0.9,-0.8,0.8,0.8, SURF_ID='显示子系统'/ 
&OBST ID='H3.stl', XB=2.0,2.9,0.8,0.9,0.8,0.8, SURF_ID='显示子系统'/ 
&OBST ID='H3.stl', XB=2.3,3.2,-1.0,-0.9,0.1,0.1, SURF_ID='显示子系统'/ 
&OBST ID='H3.stl', XB=2.3,3.2,0.9,1.0,0.1,0.1, SURF_ID='显示子系统'/ 
&OBST ID='H3.stl', XB=2.3,3.2,-1.0,-0.9,0.8,0.8, SURF_ID='显示子系统'/ 
&OBST ID='H3.stl', XB=2.3,3.2,0.9,1.0,0.8,0.8, SURF_ID='显示子系统'/ 
&OBST ID='H3.stl', XB=2.7,3.3,-1.1,-1.0,0.1,0.1, SURF_ID='显示子系统'/ 
&OBST ID='H3.stl', XB=2.7,3.3,1.0,1.1,0.1,0.1, SURF_ID='显示子系统'/ 
! ... 131 like lines cut
&OBST ID='H4.stl', XB=1.9,2.0,-0.4,-0.3,0.8,1.1, SURF_ID='通信子系统'/ 
&OBST ID='H4.stl', XB=1.9,2.0,0.3,0.4,0.8,1.1, SURF_ID='通信子系统'/ 
&OBST ID='H4.stl', XB=2.0,2.1,-0.5,-0.4,0.8,1.1, SURF_ID='通信子系统'/ 
&OBST ID='H4.stl', XB=2.0,2.1,0.4,0.5,0.8,1.1, SURF_ID='通信子系统'/ 
&OBST ID='H4.stl', XB=1.9,1.9,-0.3,0.3,0.8,1.1, SURF_ID='通信子系统'/ 
&OBST ID='H5.stl', XB=7.4,8.0,-0.5,0.5,-0.9,-0.3, SURF_ID='电池'/ 
&OBST ID='H5.stl', XB=8.0,8.2,-0.1,0.1,-0.6,-0.5, SURF_ID='电池'/ 
&OBST ID='H5.stl', XB=8.2,8.2,-0.1,0.1,-0.9,-0.6, SURF_ID='电池'/ 
&OBST ID='H5.stl', XB=8.2,8.2,-0.5,-0.1,-0.9,-0.3, SURF_ID='电池'/ 
&OBST ID='H5.stl', XB=8.2,8.2,0.1,0.5,-0.9,-0.3, SURF_ID='电池'/ 
&OBST ID='H5.stl', XB=8.2,8.2,-0.1,0.1,-0.5,-0.3, SURF_ID='电池'/ 
&OBST ID='H5.stl', XB=8.2,8.780556,-0.5,0.5,-0.85,-0.25, SURF_ID='电池'/ 
&OBST ID='H6.stl', XB=7.6,7.8,5.828671E-16,5.828671E-16,-0.1,8.604228E-16, SURF_ID='电力传输子系统'/ 
&OBST ID='H6.stl', XB=8.252778,8.358333,-0.05,0.05,-0.15,-0.1, SURF_ID='电力传输子系统'/ 
&OBST ID='H6.stl', XB=8.358333,8.411111,-0.05,0.05,-0.2,-0.15, SURF_ID='电力传输子系统'/ 
&OBST ID='H6.stl', XB=8.2,8.252778,-0.05,0.05,-0.1,-0.1, SURF_ID='电力传输子系统'/ 
&OBST ID='H6.stl', XB=8.411111,8.463889,-0.05,0.05,-0.2,-0.2, SURF_ID='电力传输子系统'/ 
&OBST ID='H6.stl', XB=8.463889,8.516667,-0.05,0.05,-0.25,-0.25, SURF_ID='电力传输子系统'/ 
&OBST ID='H6.stl', XB=8.2,8.252778,1.179612E-15,1.179612E-15,-0.15,-0.05, SURF_ID='电力传输子系统'/ 
&OBST ID='H6.stl', XB=8.411111,8.463889,1.179612E-15,1.179612E-15,-0.25,-0.15, SURF_ID='电力传输子系统'/ 
&OBST ID='H6.stl', XB=8.463889,8.516667,1.179612E-15,1.179612E-15,-0.25,-0.2, SURF_ID='电力传输子系统'/ 
&OBST ID='H6.stl', XB=8.463889,8.463889,-0.05,0.05,-0.25,-0.2, SURF_ID='电力传输子系统'/ 
&OBST ID='H7.stl', XB=3.2,3.3,-0.2,-0.1,0.6,0.7, SURF_ID='操纵子系统'/ 
&OBST ID='H7.stl', XB=3.2,3.3,-0.2,-0.2,0.2,0.6, SURF_ID='操纵子系统'/ 
&OBST ID='H7.stl', XB=2.3,2.6,-0.6,0.6,0.2,0.4, SURF_ID='操纵子系统'/ 

&VENT ID='Mesh Vent: Mesh01 [ZMAX]', SURF_ID='OPEN', XB=-0.3,8.2,-1.9,1.7,2.6,2.6/ 
&VENT ID='Mesh Vent: Mesh02 [ZMAX]', SURF_ID='OPEN', XB=8.2,10.1,-1.9,1.7,2.6,2.6/ 



! Voxel external-flux surface variants
&SURF ID='AL2024_R0235',
      RGB=153,153,153,
      TRANSPARENCY=0.54902,
      MATL_ID(1,1)='LHJ2024',
      MATL_MASS_FRACTION(1,1)=1.0,
      THICKNESS(1)=0.004000, EXTERNAL_FLUX=235, RAMP_EF='NUCLEAR_RAMP'/
&SURF ID='AL7075_R0235',
      RGB=153,153,0,
      TRANSPARENCY=0.819608,
      MATL_ID(1,1)='LHJ7075',
      MATL_MASS_FRACTION(1,1)=1.0,
      THICKNESS(1)=0.004000, EXTERNAL_FLUX=235, RAMP_EF='NUCLEAR_RAMP'/
&SURF ID='CURT_R0235',
      RGB=146,26,223,
      TRANSPARENCY=0.886275,
      MATL_ID(1,1)='NLZW',
      MATL_MASS_FRACTION(1,1)=1.0,
      THICKNESS(1)=0.03,
      IGNITION_TEMPERATURE=250,
      HRRPUA=400.0,
      RAMP_Q='Q_RAMP',
      BURN_AWAY=.FALSE., EXTERNAL_FLUX=235, RAMP_EF='NUCLEAR_RAMP'/
&SURF ID='H2_R0235',
      RGB=204,255,51,
      MATL_ID(1,1)='LHJ6061',
      MATL_MASS_FRACTION(1,1)=1.0,
      THICKNESS(1)=3.0E-3, EXTERNAL_FLUX=235, RAMP_EF='NUCLEAR_RAMP'/
&SURF ID='H3_R0235',
      RGB=204,255,51,
      MATL_ID(1,1)='LHJ6061',
      MATL_MASS_FRACTION(1,1)=1.0,
      THICKNESS(1)=3.0E-3, EXTERNAL_FLUX=235, RAMP_EF='NUCLEAR_RAMP'/
&SURF ID='H4_R0235',
      RGB=204,255,51,
      MATL_ID(1,1)='LHJ6061',
      MATL_MASS_FRACTION(1,1)=1.0,
      THICKNESS(1)=3.0E-3, EXTERNAL_FLUX=235, RAMP_EF='NUCLEAR_RAMP'/
&SURF ID='H7_R0235',
      RGB=204,255,51,
      HRRPUA=180.0,
      IGNITION_TEMPERATURE=410.0,
      MATL_ID(1,1)='CRXJ',
      MATL_MASS_FRACTION(1,1)=1.0,
      THICKNESS(1)=2.0E-3, RAMP_Q='Q_RAMP', EXTERNAL_FLUX=235, RAMP_EF='NUCLEAR_RAMP'/
&SURF ID='RADM_R0235',
      RGB=153,153,153,
      TRANSPARENCY=0.729412,
      MATL_ID(1,1)='EBLXW',
      MATL_MASS_FRACTION(1,1)=1.0,
      THICKNESS(1)=0.004000,
      HRRPUA=75.0,
      IGNITION_TEMPERATURE=400, EXTERNAL_FLUX=235, RAMP_EF='NUCLEAR_RAMP'/
&SURF ID='WINS_R0235',
      RGB=146,202,166,
      MATL_ID(1,1)='BXSSL',
      MATL_MASS_FRACTION(1,1)=1.0,
      THICKNESS(1)=0.075,
      HRRPUA=250.0,
      IGNITION_TEMPERATURE=250, EXTERNAL_FLUX=235, RAMP_EF='NUCLEAR_RAMP'/
&SURF ID='AL2024_R0471',
      RGB=153,153,153,
      TRANSPARENCY=0.54902,
      MATL_ID(1,1)='LHJ2024',
      MATL_MASS_FRACTION(1,1)=1.0,
      THICKNESS(1)=0.004000, EXTERNAL_FLUX=471, RAMP_EF='NUCLEAR_RAMP'/
&SURF ID='AL5052_R0471',
      RGB=255,255,51,
      TRANSPARENCY=0.827451,
      MATL_ID(1,1)='LHJ5052',
      MATL_MASS_FRACTION(1,1)=1.0,
      THICKNESS(1)=1.5E-3, EXTERNAL_FLUX=471, RAMP_EF='NUCLEAR_RAMP'/
&SURF ID='CURT_R0471',
      RGB=146,26,223,
      TRANSPARENCY=0.886275,
      MATL_ID(1,1)='NLZW',
      MATL_MASS_FRACTION(1,1)=1.0,
      THICKNESS(1)=0.03,
      IGNITION_TEMPERATURE=250,
      HRRPUA=400.0,
      RAMP_Q='Q_RAMP',
      BURN_AWAY=.FALSE., EXTERNAL_FLUX=471, RAMP_EF='NUCLEAR_RAMP'/
&SURF ID='H2_R0471',
      RGB=204,255,51,
      MATL_ID(1,1)='LHJ6061',
      MATL_MASS_FRACTION(1,1)=1.0,
      THICKNESS(1)=3.0E-3, EXTERNAL_FLUX=471, RAMP_EF='NUCLEAR_RAMP'/
&SURF ID='H3_R0471',
      RGB=204,255,51,
      MATL_ID(1,1)='LHJ6061',
      MATL_MASS_FRACTION(1,1)=1.0,
      THICKNESS(1)=3.0E-3, EXTERNAL_FLUX=471, RAMP_EF='NUCLEAR_RAMP'/
&SURF ID='H4_R0471',
      RGB=204,255,51,
      MATL_ID(1,1)='LHJ6061',
      MATL_MASS_FRACTION(1,1)=1.0,
      THICKNESS(1)=3.0E-3, EXTERNAL_FLUX=471, RAMP_EF='NUCLEAR_RAMP'/
&SURF ID='H7_R0471',
      RGB=204,255,51,
      HRRPUA=180.0,
      IGNITION_TEMPERATURE=410.0,
      MATL_ID(1,1)='CRXJ',
      MATL_MASS_FRACTION(1,1)=1.0,
      THICKNESS(1)=2.0E-3, RAMP_Q='Q_RAMP', EXTERNAL_FLUX=471, RAMP_EF='NUCLEAR_RAMP'/
&SURF ID='O2TANK_R0471',
      RGB=0,255,153,
      MATL_ID(1,1)='LHJ7075',
      MATL_MASS_FRACTION(1,1)=1.0,
      THICKNESS(1)=5.0E-3, EXTERNAL_FLUX=471, RAMP_EF='NUCLEAR_RAMP'/
&SURF ID='RADM_R0471',
      RGB=153,153,153,
      TRANSPARENCY=0.729412,
      MATL_ID(1,1)='EBLXW',
      MATL_MASS_FRACTION(1,1)=1.0,
      THICKNESS(1)=0.004000,
      HRRPUA=75.0,
      IGNITION_TEMPERATURE=400, EXTERNAL_FLUX=471, RAMP_EF='NUCLEAR_RAMP'/
&SURF ID='SEAT_R0471',
      RGB=146,234,117,
      TRANSPARENCY=0.827451,
      MATL_ID(1,1)='JAZPM',
      MATL_MASS_FRACTION(1,1)=1.0,
      THICKNESS(1)=0.15,
      IGNITION_TEMPERATURE=250,
      HRRPUA=450.0,
      RAMP_Q='Q_RAMP',
      BURN_AWAY=.FALSE., EXTERNAL_FLUX=471, RAMP_EF='NUCLEAR_RAMP'/
&SURF ID='WINS_R0471',
      RGB=146,202,166,
      MATL_ID(1,1)='BXSSL',
      MATL_MASS_FRACTION(1,1)=1.0,
      THICKNESS(1)=0.075,
      HRRPUA=250.0,
      IGNITION_TEMPERATURE=250, EXTERNAL_FLUX=471, RAMP_EF='NUCLEAR_RAMP'/
&SURF ID='AL2024_R0706',
      RGB=153,153,153,
      TRANSPARENCY=0.54902,
      MATL_ID(1,1)='LHJ2024',
      MATL_MASS_FRACTION(1,1)=1.0,
      THICKNESS(1)=0.004000, EXTERNAL_FLUX=706, RAMP_EF='NUCLEAR_RAMP'/
&SURF ID='AL5052_R0706',
      RGB=255,255,51,
      TRANSPARENCY=0.827451,
      MATL_ID(1,1)='LHJ5052',
      MATL_MASS_FRACTION(1,1)=1.0,
      THICKNESS(1)=1.5E-3, EXTERNAL_FLUX=706, RAMP_EF='NUCLEAR_RAMP'/
&SURF ID='AL7075_R0706',
      RGB=153,153,0,
      TRANSPARENCY=0.819608,
      MATL_ID(1,1)='LHJ7075',
      MATL_MASS_FRACTION(1,1)=1.0,
      THICKNESS(1)=0.004000, EXTERNAL_FLUX=706, RAMP_EF='NUCLEAR_RAMP'/
&SURF ID='CURT_R0706',
      RGB=146,26,223,
      TRANSPARENCY=0.886275,
      MATL_ID(1,1)='NLZW',
      MATL_MASS_FRACTION(1,1)=1.0,
      THICKNESS(1)=0.03,
      IGNITION_TEMPERATURE=250,
      HRRPUA=400.0,
      RAMP_Q='Q_RAMP',
      BURN_AWAY=.FALSE., EXTERNAL_FLUX=706, RAMP_EF='NUCLEAR_RAMP'/
&SURF ID='H1_R0706',
      RGB=204,255,51,
      MATL_ID(1,1)='LHJ6061',
      MATL_MASS_FRACTION(1,1)=1.0,
      THICKNESS(1)=3.0E-3, EXTERNAL_FLUX=706, RAMP_EF='NUCLEAR_RAMP'/
&SURF ID='H2_R0706',
      RGB=204,255,51,
      MATL_ID(1,1)='LHJ6061',
      MATL_MASS_FRACTION(1,1)=1.0,
      THICKNESS(1)=3.0E-3, EXTERNAL_FLUX=706, RAMP_EF='NUCLEAR_RAMP'/
&SURF ID='H3_R0706',
      RGB=204,255,51,
      MATL_ID(1,1)='LHJ6061',
      MATL_MASS_FRACTION(1,1)=1.0,
      THICKNESS(1)=3.0E-3, EXTERNAL_FLUX=706, RAMP_EF='NUCLEAR_RAMP'/
&SURF ID='H4_R0706',
      RGB=204,255,51,
      MATL_ID(1,1)='LHJ6061',
      MATL_MASS_FRACTION(1,1)=1.0,
      THICKNESS(1)=3.0E-3, EXTERNAL_FLUX=706, RAMP_EF='NUCLEAR_RAMP'/
&SURF ID='H7_R0706',
      RGB=204,255,51,
      HRRPUA=180.0,
      IGNITION_TEMPERATURE=410.0,
      MATL_ID(1,1)='CRXJ',
      MATL_MASS_FRACTION(1,1)=1.0,
      THICKNESS(1)=2.0E-3, RAMP_Q='Q_RAMP', EXTERNAL_FLUX=706, RAMP_EF='NUCLEAR_RAMP'/
&SURF ID='O2TANK_R0706',
      RGB=0,255,153,
      MATL_ID(1,1)='LHJ7075',
      MATL_MASS_FRACTION(1,1)=1.0,
      THICKNESS(1)=5.0E-3, EXTERNAL_FLUX=706, RAMP_EF='NUCLEAR_RAMP'/
&SURF ID='RADM_R0706',
      RGB=153,153,153,
      TRANSPARENCY=0.729412,
      MATL_ID(1,1)='EBLXW',
      MATL_MASS_FRACTION(1,1)=1.0,
      THICKNESS(1)=0.004000,
      HRRPUA=75.0,
      IGNITION_TEMPERATURE=400, EXTERNAL_FLUX=706, RAMP_EF='NUCLEAR_RAMP'/
&SURF ID='SEAT_R0706',
      RGB=146,234,117,
      TRANSPARENCY=0.827451,
      MATL_ID(1,1)='JAZPM',
      MATL_MASS_FRACTION(1,1)=1.0,
      THICKNESS(1)=0.15,
      IGNITION_TEMPERATURE=250,
      HRRPUA=450.0,
      RAMP_Q='Q_RAMP',
      BURN_AWAY=.FALSE., EXTERNAL_FLUX=706, RAMP_EF='NUCLEAR_RAMP'/
&SURF ID='WINS_R0706',
      RGB=146,202,166,
      MATL_ID(1,1)='BXSSL',
      MATL_MASS_FRACTION(1,1)=1.0,
      THICKNESS(1)=0.075,
      HRRPUA=250.0,
      IGNITION_TEMPERATURE=250, EXTERNAL_FLUX=706, RAMP_EF='NUCLEAR_RAMP'/
&SURF ID='AL2024_R0941',
      RGB=153,153,153,
      TRANSPARENCY=0.54902,
      MATL_ID(1,1)='LHJ2024',
      MATL_MASS_FRACTION(1,1)=1.0,
      THICKNESS(1)=0.004000, EXTERNAL_FLUX=941, RAMP_EF='NUCLEAR_RAMP'/
&SURF ID='AL7075_R0941',
      RGB=153,153,0,
      TRANSPARENCY=0.819608,
      MATL_ID(1,1)='LHJ7075',
      MATL_MASS_FRACTION(1,1)=1.0,
      THICKNESS(1)=0.004000, EXTERNAL_FLUX=941, RAMP_EF='NUCLEAR_RAMP'/
&SURF ID='CURT_R0941',
      RGB=146,26,223,
      TRANSPARENCY=0.886275,
      MATL_ID(1,1)='NLZW',
      MATL_MASS_FRACTION(1,1)=1.0,
      THICKNESS(1)=0.03,
      IGNITION_TEMPERATURE=250,
      HRRPUA=400.0,
      RAMP_Q='Q_RAMP',
      BURN_AWAY=.FALSE., EXTERNAL_FLUX=941, RAMP_EF='NUCLEAR_RAMP'/
&SURF ID='H3_R0941',
      RGB=204,255,51,
      MATL_ID(1,1)='LHJ6061',
      MATL_MASS_FRACTION(1,1)=1.0,
      THICKNESS(1)=3.0E-3, EXTERNAL_FLUX=941, RAMP_EF='NUCLEAR_RAMP'/
&SURF ID='H4_R0941',
      RGB=204,255,51,
      MATL_ID(1,1)='LHJ6061',
      MATL_MASS_FRACTION(1,1)=1.0,
      THICKNESS(1)=3.0E-3, EXTERNAL_FLUX=941, RAMP_EF='NUCLEAR_RAMP'/
&SURF ID='H7_R0941',
      RGB=204,255,51,
      HRRPUA=180.0,
      IGNITION_TEMPERATURE=410.0,
      MATL_ID(1,1)='CRXJ',
      MATL_MASS_FRACTION(1,1)=1.0,
      THICKNESS(1)=2.0E-3, RAMP_Q='Q_RAMP', EXTERNAL_FLUX=941, RAMP_EF='NUCLEAR_RAMP'/
&SURF ID='RADM_R0941',
      RGB=153,153,153,
      TRANSPARENCY=0.729412,
      MATL_ID(1,1)='EBLXW',
      MATL_MASS_FRACTION(1,1)=1.0,
      THICKNESS(1)=0.004000,
      HRRPUA=75.0,
      IGNITION_TEMPERATURE=400, EXTERNAL_FLUX=941, RAMP_EF='NUCLEAR_RAMP'/
&SURF ID='WINS_R0941',
      RGB=146,202,166,
      MATL_ID(1,1)='BXSSL',
      MATL_MASS_FRACTION(1,1)=1.0,
      THICKNESS(1)=0.075,
      HRRPUA=250.0,
      IGNITION_TEMPERATURE=250, EXTERNAL_FLUX=941, RAMP_EF='NUCLEAR_RAMP'/
&SURF ID='AL2024_R1177',
      RGB=153,153,153,
      TRANSPARENCY=0.54902,
      MATL_ID(1,1)='LHJ2024',
      MATL_MASS_FRACTION(1,1)=1.0,
      THICKNESS(1)=0.004000, EXTERNAL_FLUX=1177, RAMP_EF='NUCLEAR_RAMP'/
&SURF ID='AL7075_R1177',
      RGB=153,153,0,
      TRANSPARENCY=0.819608,
      MATL_ID(1,1)='LHJ7075',
      MATL_MASS_FRACTION(1,1)=1.0,
      THICKNESS(1)=0.004000, EXTERNAL_FLUX=1177, RAMP_EF='NUCLEAR_RAMP'/
&SURF ID='CURT_R1177',
      RGB=146,26,223,
      TRANSPARENCY=0.886275,
      MATL_ID(1,1)='NLZW',
      MATL_MASS_FRACTION(1,1)=1.0,
      THICKNESS(1)=0.03,
      IGNITION_TEMPERATURE=250,
      HRRPUA=400.0,
      RAMP_Q='Q_RAMP',
      BURN_AWAY=.FALSE., EXTERNAL_FLUX=1177, RAMP_EF='NUCLEAR_RAMP'/
&SURF ID='H3_R1177',
      RGB=204,255,51,
      MATL_ID(1,1)='LHJ6061',
      MATL_MASS_FRACTION(1,1)=1.0,
      THICKNESS(1)=3.0E-3, EXTERNAL_FLUX=1177, RAMP_EF='NUCLEAR_RAMP'/
&SURF ID='H7_R1177',
      RGB=204,255,51,
      HRRPUA=180.0,
      IGNITION_TEMPERATURE=410.0,
      MATL_ID(1,1)='CRXJ',
      MATL_MASS_FRACTION(1,1)=1.0,
      THICKNESS(1)=2.0E-3, RAMP_Q='Q_RAMP', EXTERNAL_FLUX=1177, RAMP_EF='NUCLEAR_RAMP'/
&SURF ID='O2TANK_R1177',
      RGB=0,255,153,
      MATL_ID(1,1)='LHJ7075',
      MATL_MASS_FRACTION(1,1)=1.0,
      THICKNESS(1)=5.0E-3, EXTERNAL_FLUX=1177, RAMP_EF='NUCLEAR_RAMP'/
&SURF ID='WINS_R1177',
      RGB=146,202,166,
      MATL_ID(1,1)='BXSSL',
      MATL_MASS_FRACTION(1,1)=1.0,
      THICKNESS(1)=0.075,
      HRRPUA=250.0,
      IGNITION_TEMPERATURE=250, EXTERNAL_FLUX=1177, RAMP_EF='NUCLEAR_RAMP'/
&SURF ID='AL2024_R1412',
      RGB=153,153,153,
      TRANSPARENCY=0.54902,
      MATL_ID(1,1)='LHJ2024',
      MATL_MASS_FRACTION(1,1)=1.0,
      THICKNESS(1)=0.004000, EXTERNAL_FLUX=1412, RAMP_EF='NUCLEAR_RAMP'/
&SURF ID='AL7075_R1412',
      RGB=153,153,0,
      TRANSPARENCY=0.819608,
      MATL_ID(1,1)='LHJ7075',
      MATL_MASS_FRACTION(1,1)=1.0,
      THICKNESS(1)=0.004000, EXTERNAL_FLUX=1412, RAMP_EF='NUCLEAR_RAMP'/
&SURF ID='CURT_R1412',
      RGB=146,26,223,
      TRANSPARENCY=0.886275,
      MATL_ID(1,1)='NLZW',
      MATL_MASS_FRACTION(1,1)=1.0,
      THICKNESS(1)=0.03,
      IGNITION_TEMPERATURE=250,
      HRRPUA=400.0,
      RAMP_Q='Q_RAMP',
      BURN_AWAY=.FALSE., EXTERNAL_FLUX=1412, RAMP_EF='NUCLEAR_RAMP'/
&SURF ID='H1_R1412',
      RGB=204,255,51,
      MATL_ID(1,1)='LHJ6061',
      MATL_MASS_FRACTION(1,1)=1.0,
      THICKNESS(1)=3.0E-3, EXTERNAL_FLUX=1412, RAMP_EF='NUCLEAR_RAMP'/
&SURF ID='H2_R1412',
      RGB=204,255,51,
      MATL_ID(1,1)='LHJ6061',
      MATL_MASS_FRACTION(1,1)=1.0,
      THICKNESS(1)=3.0E-3, EXTERNAL_FLUX=1412, RAMP_EF='NUCLEAR_RAMP'/
&SURF ID='RADM_R1412',
      RGB=153,153,153,
      TRANSPARENCY=0.729412,
      MATL_ID(1,1)='EBLXW',
      MATL_MASS_FRACTION(1,1)=1.0,
      THICKNESS(1)=0.004000,
      HRRPUA=75.0,
      IGNITION_TEMPERATURE=400, EXTERNAL_FLUX=1412, RAMP_EF='NUCLEAR_RAMP'/
&SURF ID='CURT_R1647',
      RGB=146,26,223,
      TRANSPARENCY=0.886275,
      MATL_ID(1,1)='NLZW',
      MATL_MASS_FRACTION(1,1)=1.0,
      THICKNESS(1)=0.03,
      IGNITION_TEMPERATURE=250,
      HRRPUA=400.0,
      RAMP_Q='Q_RAMP',
      BURN_AWAY=.FALSE., EXTERNAL_FLUX=1647, RAMP_EF='NUCLEAR_RAMP'/
&SURF ID='AL2024_R1883',
      RGB=153,153,153,
      TRANSPARENCY=0.54902,
      MATL_ID(1,1)='LHJ2024',
      MATL_MASS_FRACTION(1,1)=1.0,
      THICKNESS(1)=0.004000, EXTERNAL_FLUX=1883, RAMP_EF='NUCLEAR_RAMP'/
&SURF ID='AL7075_R1883',
      RGB=153,153,0,
      TRANSPARENCY=0.819608,
      MATL_ID(1,1)='LHJ7075',
      MATL_MASS_FRACTION(1,1)=1.0,
      THICKNESS(1)=0.004000, EXTERNAL_FLUX=1883, RAMP_EF='NUCLEAR_RAMP'/
&SURF ID='CURT_R1883',
      RGB=146,26,223,
      TRANSPARENCY=0.886275,
      MATL_ID(1,1)='NLZW',
      MATL_MASS_FRACTION(1,1)=1.0,
      THICKNESS(1)=0.03,
      IGNITION_TEMPERATURE=250,
      HRRPUA=400.0,
      RAMP_Q='Q_RAMP',
      BURN_AWAY=.FALSE., EXTERNAL_FLUX=1883, RAMP_EF='NUCLEAR_RAMP'/
&SURF ID='WINS_R1883',
      RGB=146,202,166,
      MATL_ID(1,1)='BXSSL',
      MATL_MASS_FRACTION(1,1)=1.0,
      THICKNESS(1)=0.075,
      HRRPUA=250.0,
      IGNITION_TEMPERATURE=250, EXTERNAL_FLUX=1883, RAMP_EF='NUCLEAR_RAMP'/
&SURF ID='AL2024_R2118',
      RGB=153,153,153,
      TRANSPARENCY=0.54902,
      MATL_ID(1,1)='LHJ2024',
      MATL_MASS_FRACTION(1,1)=1.0,
      THICKNESS(1)=0.004000, EXTERNAL_FLUX=2118, RAMP_EF='NUCLEAR_RAMP'/
&SURF ID='AL7075_R2118',
      RGB=153,153,0,
      TRANSPARENCY=0.819608,
      MATL_ID(1,1)='LHJ7075',
      MATL_MASS_FRACTION(1,1)=1.0,
      THICKNESS(1)=0.004000, EXTERNAL_FLUX=2118, RAMP_EF='NUCLEAR_RAMP'/
&SURF ID='CURT_R2118',
      RGB=146,26,223,
      TRANSPARENCY=0.886275,
      MATL_ID(1,1)='NLZW',
      MATL_MASS_FRACTION(1,1)=1.0,
      THICKNESS(1)=0.03,
      IGNITION_TEMPERATURE=250,
      HRRPUA=400.0,
      RAMP_Q='Q_RAMP',
      BURN_AWAY=.FALSE., EXTERNAL_FLUX=2118, RAMP_EF='NUCLEAR_RAMP'/
&SURF ID='H3_R2118',
      RGB=204,255,51,
      MATL_ID(1,1)='LHJ6061',
      MATL_MASS_FRACTION(1,1)=1.0,
      THICKNESS(1)=3.0E-3, EXTERNAL_FLUX=2118, RAMP_EF='NUCLEAR_RAMP'/
&SURF ID='H7_R2118',
      RGB=204,255,51,
      HRRPUA=180.0,
      IGNITION_TEMPERATURE=410.0,
      MATL_ID(1,1)='CRXJ',
      MATL_MASS_FRACTION(1,1)=1.0,
      THICKNESS(1)=2.0E-3, RAMP_Q='Q_RAMP', EXTERNAL_FLUX=2118, RAMP_EF='NUCLEAR_RAMP'/
&SURF ID='SEAT_R2118',
      RGB=146,234,117,
      TRANSPARENCY=0.827451,
      MATL_ID(1,1)='JAZPM',
      MATL_MASS_FRACTION(1,1)=1.0,
      THICKNESS(1)=0.15,
      IGNITION_TEMPERATURE=250,
      HRRPUA=450.0,
      RAMP_Q='Q_RAMP',
      BURN_AWAY=.FALSE., EXTERNAL_FLUX=2118, RAMP_EF='NUCLEAR_RAMP'/
&SURF ID='WINS_R2118',
      RGB=146,202,166,
      MATL_ID(1,1)='BXSSL',
      MATL_MASS_FRACTION(1,1)=1.0,
      THICKNESS(1)=0.075,
      HRRPUA=250.0,
      IGNITION_TEMPERATURE=250, EXTERNAL_FLUX=2118, RAMP_EF='NUCLEAR_RAMP'/
&SURF ID='AL2024_R2353',
      RGB=153,153,153,
      TRANSPARENCY=0.54902,
      MATL_ID(1,1)='LHJ2024',
      MATL_MASS_FRACTION(1,1)=1.0,
      THICKNESS(1)=0.004000, EXTERNAL_FLUX=2353, RAMP_EF='NUCLEAR_RAMP'/
&SURF ID='CURT_R2353',
      RGB=146,26,223,
      TRANSPARENCY=0.886275,
      MATL_ID(1,1)='NLZW',
      MATL_MASS_FRACTION(1,1)=1.0,
      THICKNESS(1)=0.03,
      IGNITION_TEMPERATURE=250,
      HRRPUA=400.0,
      RAMP_Q='Q_RAMP',
      BURN_AWAY=.FALSE., EXTERNAL_FLUX=2353, RAMP_EF='NUCLEAR_RAMP'/
&SURF ID='H3_R2353',
      RGB=204,255,51,
      MATL_ID(1,1)='LHJ6061',
      MATL_MASS_FRACTION(1,1)=1.0,
      THICKNESS(1)=3.0E-3, EXTERNAL_FLUX=2353, RAMP_EF='NUCLEAR_RAMP'/
&SURF ID='H7_R2353',
      RGB=204,255,51,
      HRRPUA=180.0,
      IGNITION_TEMPERATURE=410.0,
      MATL_ID(1,1)='CRXJ',
      MATL_MASS_FRACTION(1,1)=1.0,
      THICKNESS(1)=2.0E-3, RAMP_Q='Q_RAMP', EXTERNAL_FLUX=2353, RAMP_EF='NUCLEAR_RAMP'/
&SURF ID='WINS_R2353',
      RGB=146,202,166,
      MATL_ID(1,1)='BXSSL',
      MATL_MASS_FRACTION(1,1)=1.0,
      THICKNESS(1)=0.075,
      HRRPUA=250.0,
      IGNITION_TEMPERATURE=250, EXTERNAL_FLUX=2353, RAMP_EF='NUCLEAR_RAMP'/
&SURF ID='AL2024_R2588',
      RGB=153,153,153,
      TRANSPARENCY=0.54902,
      MATL_ID(1,1)='LHJ2024',
      MATL_MASS_FRACTION(1,1)=1.0,
      THICKNESS(1)=0.004000, EXTERNAL_FLUX=2588, RAMP_EF='NUCLEAR_RAMP'/
&SURF ID='AL7075_R2588',
      RGB=153,153,0,
      TRANSPARENCY=0.819608,
      MATL_ID(1,1)='LHJ7075',
      MATL_MASS_FRACTION(1,1)=1.0,
      THICKNESS(1)=0.004000, EXTERNAL_FLUX=2588, RAMP_EF='NUCLEAR_RAMP'/
&SURF ID='CURT_R2588',
      RGB=146,26,223,
      TRANSPARENCY=0.886275,
      MATL_ID(1,1)='NLZW',
      MATL_MASS_FRACTION(1,1)=1.0,
      THICKNESS(1)=0.03,
      IGNITION_TEMPERATURE=250,
      HRRPUA=400.0,
      RAMP_Q='Q_RAMP',
      BURN_AWAY=.FALSE., EXTERNAL_FLUX=2588, RAMP_EF='NUCLEAR_RAMP'/
&SURF ID='H3_R2588',
      RGB=204,255,51,
      MATL_ID(1,1)='LHJ6061',
      MATL_MASS_FRACTION(1,1)=1.0,
      THICKNESS(1)=3.0E-3, EXTERNAL_FLUX=2588, RAMP_EF='NUCLEAR_RAMP'/
&SURF ID='H7_R2588',
      RGB=204,255,51,
      HRRPUA=180.0,
      IGNITION_TEMPERATURE=410.0,
      MATL_ID(1,1)='CRXJ',
      MATL_MASS_FRACTION(1,1)=1.0,
      THICKNESS(1)=2.0E-3, RAMP_Q='Q_RAMP', EXTERNAL_FLUX=2588, RAMP_EF='NUCLEAR_RAMP'/
&SURF ID='SEAT_R2588',
      RGB=146,234,117,
      TRANSPARENCY=0.827451,
      MATL_ID(1,1)='JAZPM',
      MATL_MASS_FRACTION(1,1)=1.0,
      THICKNESS(1)=0.15,
      IGNITION_TEMPERATURE=250,
      HRRPUA=450.0,
      RAMP_Q='Q_RAMP',
      BURN_AWAY=.FALSE., EXTERNAL_FLUX=2588, RAMP_EF='NUCLEAR_RAMP'/
&SURF ID='WINS_R2588',
      RGB=146,202,166,
      MATL_ID(1,1)='BXSSL',
      MATL_MASS_FRACTION(1,1)=1.0,
      THICKNESS(1)=0.075,
      HRRPUA=250.0,
      IGNITION_TEMPERATURE=250, EXTERNAL_FLUX=2588, RAMP_EF='NUCLEAR_RAMP'/
&SURF ID='AL2024_R2824',
      RGB=153,153,153,
      TRANSPARENCY=0.54902,
      MATL_ID(1,1)='LHJ2024',
      MATL_MASS_FRACTION(1,1)=1.0,
      THICKNESS(1)=0.004000, EXTERNAL_FLUX=2824, RAMP_EF='NUCLEAR_RAMP'/
&SURF ID='CURT_R2824',
      RGB=146,26,223,
      TRANSPARENCY=0.886275,
      MATL_ID(1,1)='NLZW',
      MATL_MASS_FRACTION(1,1)=1.0,
      THICKNESS(1)=0.03,
      IGNITION_TEMPERATURE=250,
      HRRPUA=400.0,
      RAMP_Q='Q_RAMP',
      BURN_AWAY=.FALSE., EXTERNAL_FLUX=2824, RAMP_EF='NUCLEAR_RAMP'/
&SURF ID='H2_R2824',
      RGB=204,255,51,
      MATL_ID(1,1)='LHJ6061',
      MATL_MASS_FRACTION(1,1)=1.0,
      THICKNESS(1)=3.0E-3, EXTERNAL_FLUX=2824, RAMP_EF='NUCLEAR_RAMP'/
&SURF ID='H3_R2824',
      RGB=204,255,51,
      MATL_ID(1,1)='LHJ6061',
      MATL_MASS_FRACTION(1,1)=1.0,
      THICKNESS(1)=3.0E-3, EXTERNAL_FLUX=2824, RAMP_EF='NUCLEAR_RAMP'/
&SURF ID='RADM_R2824',
      RGB=153,153,153,
      TRANSPARENCY=0.729412,
      MATL_ID(1,1)='EBLXW',
      MATL_MASS_FRACTION(1,1)=1.0,
      THICKNESS(1)=0.004000,
      HRRPUA=75.0,
      IGNITION_TEMPERATURE=400, EXTERNAL_FLUX=2824, RAMP_EF='NUCLEAR_RAMP'/
&SURF ID='WINS_R2824',
      RGB=146,202,166,
      MATL_ID(1,1)='BXSSL',
      MATL_MASS_FRACTION(1,1)=1.0,
      THICKNESS(1)=0.075,
      HRRPUA=250.0,
      IGNITION_TEMPERATURE=250, EXTERNAL_FLUX=2824, RAMP_EF='NUCLEAR_RAMP'/
&SURF ID='AL7075_R3059',
      RGB=153,153,0,
      TRANSPARENCY=0.819608,
      MATL_ID(1,1)='LHJ7075',
      MATL_MASS_FRACTION(1,1)=1.0,
      THICKNESS(1)=0.004000, EXTERNAL_FLUX=3059, RAMP_EF='NUCLEAR_RAMP'/
&SURF ID='CURT_R3059',
      RGB=146,26,223,
      TRANSPARENCY=0.886275,
      MATL_ID(1,1)='NLZW',
      MATL_MASS_FRACTION(1,1)=1.0,
      THICKNESS(1)=0.03,
      IGNITION_TEMPERATURE=250,
      HRRPUA=400.0,
      RAMP_Q='Q_RAMP',
      BURN_AWAY=.FALSE., EXTERNAL_FLUX=3059, RAMP_EF='NUCLEAR_RAMP'/
&SURF ID='H3_R3059',
      RGB=204,255,51,
      MATL_ID(1,1)='LHJ6061',
      MATL_MASS_FRACTION(1,1)=1.0,
      THICKNESS(1)=3.0E-3, EXTERNAL_FLUX=3059, RAMP_EF='NUCLEAR_RAMP'/
&SURF ID='WINS_R3059',
      RGB=146,202,166,
      MATL_ID(1,1)='BXSSL',
      MATL_MASS_FRACTION(1,1)=1.0,
      THICKNESS(1)=0.075,
      HRRPUA=250.0,
      IGNITION_TEMPERATURE=250, EXTERNAL_FLUX=3059, RAMP_EF='NUCLEAR_RAMP'/
&SURF ID='AL7075_R3294',
      RGB=153,153,0,
      TRANSPARENCY=0.819608,
      MATL_ID(1,1)='LHJ7075',
      MATL_MASS_FRACTION(1,1)=1.0,
      THICKNESS(1)=0.004000, EXTERNAL_FLUX=3294, RAMP_EF='NUCLEAR_RAMP'/
&SURF ID='CURT_R3294',
      RGB=146,26,223,
      TRANSPARENCY=0.886275,
      MATL_ID(1,1)='NLZW',
      MATL_MASS_FRACTION(1,1)=1.0,
      THICKNESS(1)=0.03,
      IGNITION_TEMPERATURE=250,
      HRRPUA=400.0,
      RAMP_Q='Q_RAMP',
      BURN_AWAY=.FALSE., EXTERNAL_FLUX=3294, RAMP_EF='NUCLEAR_RAMP'/
&SURF ID='H3_R3294',
      RGB=204,255,51,
      MATL_ID(1,1)='LHJ6061',
      MATL_MASS_FRACTION(1,1)=1.0,
      THICKNESS(1)=3.0E-3, EXTERNAL_FLUX=3294, RAMP_EF='NUCLEAR_RAMP'/
&SURF ID='WINS_R3294',
      RGB=146,202,166,
      MATL_ID(1,1)='BXSSL',
      MATL_MASS_FRACTION(1,1)=1.0,
      THICKNESS(1)=0.075,
      HRRPUA=250.0,
      IGNITION_TEMPERATURE=250, EXTERNAL_FLUX=3294, RAMP_EF='NUCLEAR_RAMP'/
&SURF ID='AL2024_R3530',
      RGB=153,153,153,
      TRANSPARENCY=0.54902,
      MATL_ID(1,1)='LHJ2024',
      MATL_MASS_FRACTION(1,1)=1.0,
      THICKNESS(1)=0.004000, EXTERNAL_FLUX=3530, RAMP_EF='NUCLEAR_RAMP'/
&SURF ID='AL7075_R3530',
      RGB=153,153,0,
      TRANSPARENCY=0.819608,
      MATL_ID(1,1)='LHJ7075',
      MATL_MASS_FRACTION(1,1)=1.0,
      THICKNESS(1)=0.004000, EXTERNAL_FLUX=3530, RAMP_EF='NUCLEAR_RAMP'/
&SURF ID='CURT_R3530',
      RGB=146,26,223,
      TRANSPARENCY=0.886275,
      MATL_ID(1,1)='NLZW',
      MATL_MASS_FRACTION(1,1)=1.0,
      THICKNESS(1)=0.03,
      IGNITION_TEMPERATURE=250,
      HRRPUA=400.0,
      RAMP_Q='Q_RAMP',
      BURN_AWAY=.FALSE., EXTERNAL_FLUX=3530, RAMP_EF='NUCLEAR_RAMP'/
&SURF ID='H3_R3530',
      RGB=204,255,51,
      MATL_ID(1,1)='LHJ6061',
      MATL_MASS_FRACTION(1,1)=1.0,
      THICKNESS(1)=3.0E-3, EXTERNAL_FLUX=3530, RAMP_EF='NUCLEAR_RAMP'/
&SURF ID='H4_R3530',
      RGB=204,255,51,
      MATL_ID(1,1)='LHJ6061',
      MATL_MASS_FRACTION(1,1)=1.0,
      THICKNESS(1)=3.0E-3, EXTERNAL_FLUX=3530, RAMP_EF='NUCLEAR_RAMP'/
&SURF ID='WINS_R3530',
      RGB=146,202,166,
      MATL_ID(1,1)='BXSSL',
      MATL_MASS_FRACTION(1,1)=1.0,
      THICKNESS(1)=0.075,
      HRRPUA=250.0,
      IGNITION_TEMPERATURE=250, EXTERNAL_FLUX=3530, RAMP_EF='NUCLEAR_RAMP'/
&SURF ID='AL7075_R3765',
      RGB=153,153,0,
      TRANSPARENCY=0.819608,
      MATL_ID(1,1)='LHJ7075',
      MATL_MASS_FRACTION(1,1)=1.0,
      THICKNESS(1)=0.004000, EXTERNAL_FLUX=3765, RAMP_EF='NUCLEAR_RAMP'/
&SURF ID='CURT_R3765',
      RGB=146,26,223,
      TRANSPARENCY=0.886275,
      MATL_ID(1,1)='NLZW',
      MATL_MASS_FRACTION(1,1)=1.0,
      THICKNESS(1)=0.03,
      IGNITION_TEMPERATURE=250,
      HRRPUA=400.0,
      RAMP_Q='Q_RAMP',
      BURN_AWAY=.FALSE., EXTERNAL_FLUX=3765, RAMP_EF='NUCLEAR_RAMP'/
&SURF ID='H3_R3765',
      RGB=204,255,51,
      MATL_ID(1,1)='LHJ6061',
      MATL_MASS_FRACTION(1,1)=1.0,
      THICKNESS(1)=3.0E-3, EXTERNAL_FLUX=3765, RAMP_EF='NUCLEAR_RAMP'/
&SURF ID='H7_R3765',
      RGB=204,255,51,
      HRRPUA=180.0,
      IGNITION_TEMPERATURE=410.0,
      MATL_ID(1,1)='CRXJ',
      MATL_MASS_FRACTION(1,1)=1.0,
      THICKNESS(1)=2.0E-3, RAMP_Q='Q_RAMP', EXTERNAL_FLUX=3765, RAMP_EF='NUCLEAR_RAMP'/
&SURF ID='WINS_R3765',
      RGB=146,202,166,
      MATL_ID(1,1)='BXSSL',
      MATL_MASS_FRACTION(1,1)=1.0,
      THICKNESS(1)=0.075,
      HRRPUA=250.0,
      IGNITION_TEMPERATURE=250, EXTERNAL_FLUX=3765, RAMP_EF='NUCLEAR_RAMP'/
&SURF ID='AL2024_R4000',
      RGB=153,153,153,
      TRANSPARENCY=0.54902,
      MATL_ID(1,1)='LHJ2024',
      MATL_MASS_FRACTION(1,1)=1.0,
      THICKNESS(1)=0.004000, EXTERNAL_FLUX=4000, RAMP_EF='NUCLEAR_RAMP'/
&SURF ID='AL7075_R4000',
      RGB=153,153,0,
      TRANSPARENCY=0.819608,
      MATL_ID(1,1)='LHJ7075',
      MATL_MASS_FRACTION(1,1)=1.0,
      THICKNESS(1)=0.004000, EXTERNAL_FLUX=4000, RAMP_EF='NUCLEAR_RAMP'/
&SURF ID='CURT_R4000',
      RGB=146,26,223,
      TRANSPARENCY=0.886275,
      MATL_ID(1,1)='NLZW',
      MATL_MASS_FRACTION(1,1)=1.0,
      THICKNESS(1)=0.03,
      IGNITION_TEMPERATURE=250,
      HRRPUA=400.0,
      RAMP_Q='Q_RAMP',
      BURN_AWAY=.FALSE., EXTERNAL_FLUX=4000, RAMP_EF='NUCLEAR_RAMP'/
&SURF ID='H3_R4000',
      RGB=204,255,51,
      MATL_ID(1,1)='LHJ6061',
      MATL_MASS_FRACTION(1,1)=1.0,
      THICKNESS(1)=3.0E-3, EXTERNAL_FLUX=4000, RAMP_EF='NUCLEAR_RAMP'/
&SURF ID='H4_R4000',
      RGB=204,255,51,
      MATL_ID(1,1)='LHJ6061',
      MATL_MASS_FRACTION(1,1)=1.0,
      THICKNESS(1)=3.0E-3, EXTERNAL_FLUX=4000, RAMP_EF='NUCLEAR_RAMP'/
&SURF ID='WINS_R4000',
      RGB=146,202,166,
      MATL_ID(1,1)='BXSSL',
      MATL_MASS_FRACTION(1,1)=1.0,
      THICKNESS(1)=0.075,
      HRRPUA=250.0,
      IGNITION_TEMPERATURE=250, EXTERNAL_FLUX=4000, RAMP_EF='NUCLEAR_RAMP'/
&SURF ID='AL2024_R4236',
      RGB=153,153,153,
      TRANSPARENCY=0.54902,
      MATL_ID(1,1)='LHJ2024',
      MATL_MASS_FRACTION(1,1)=1.0,
      THICKNESS(1)=0.004000, EXTERNAL_FLUX=4236, RAMP_EF='NUCLEAR_RAMP'/
&SURF ID='AL7075_R4236',
      RGB=153,153,0,
      TRANSPARENCY=0.819608,
      MATL_ID(1,1)='LHJ7075',
      MATL_MASS_FRACTION(1,1)=1.0,
      THICKNESS(1)=0.004000, EXTERNAL_FLUX=4236, RAMP_EF='NUCLEAR_RAMP'/
&SURF ID='CURT_R4236',
      RGB=146,26,223,
      TRANSPARENCY=0.886275,
      MATL_ID(1,1)='NLZW',
      MATL_MASS_FRACTION(1,1)=1.0,
      THICKNESS(1)=0.03,
      IGNITION_TEMPERATURE=250,
      HRRPUA=400.0,
      RAMP_Q='Q_RAMP',
      BURN_AWAY=.FALSE., EXTERNAL_FLUX=4236, RAMP_EF='NUCLEAR_RAMP'/
&SURF ID='H3_R4236',
      RGB=204,255,51,
      MATL_ID(1,1)='LHJ6061',
      MATL_MASS_FRACTION(1,1)=1.0,
      THICKNESS(1)=3.0E-3, EXTERNAL_FLUX=4236, RAMP_EF='NUCLEAR_RAMP'/
&SURF ID='H4_R4236',
      RGB=204,255,51,
      MATL_ID(1,1)='LHJ6061',
      MATL_MASS_FRACTION(1,1)=1.0,
      THICKNESS(1)=3.0E-3, EXTERNAL_FLUX=4236, RAMP_EF='NUCLEAR_RAMP'/
&SURF ID='H7_R4236',
      RGB=204,255,51,
      HRRPUA=180.0,
      IGNITION_TEMPERATURE=410.0,
      MATL_ID(1,1)='CRXJ',
      MATL_MASS_FRACTION(1,1)=1.0,
      THICKNESS(1)=2.0E-3, RAMP_Q='Q_RAMP', EXTERNAL_FLUX=4236, RAMP_EF='NUCLEAR_RAMP'/
&SURF ID='WINS_R4236',
      RGB=146,202,166,
      MATL_ID(1,1)='BXSSL',
      MATL_MASS_FRACTION(1,1)=1.0,
      THICKNESS(1)=0.075,
      HRRPUA=250.0,
      IGNITION_TEMPERATURE=250, EXTERNAL_FLUX=4236, RAMP_EF='NUCLEAR_RAMP'/
&SURF ID='AL2024_R4471',
      RGB=153,153,153,
      TRANSPARENCY=0.54902,
      MATL_ID(1,1)='LHJ2024',
      MATL_MASS_FRACTION(1,1)=1.0,
      THICKNESS(1)=0.004000, EXTERNAL_FLUX=4471, RAMP_EF='NUCLEAR_RAMP'/
&SURF ID='AL7075_R4471',
      RGB=153,153,0,
      TRANSPARENCY=0.819608,
      MATL_ID(1,1)='LHJ7075',
      MATL_MASS_FRACTION(1,1)=1.0,
      THICKNESS(1)=0.004000, EXTERNAL_FLUX=4471, RAMP_EF='NUCLEAR_RAMP'/
&SURF ID='CURT_R4471',
      RGB=146,26,223,
      TRANSPARENCY=0.886275,
      MATL_ID(1,1)='NLZW',
      MATL_MASS_FRACTION(1,1)=1.0,
      THICKNESS(1)=0.03,
      IGNITION_TEMPERATURE=250,
      HRRPUA=400.0,
      RAMP_Q='Q_RAMP',
      BURN_AWAY=.FALSE., EXTERNAL_FLUX=4471, RAMP_EF='NUCLEAR_RAMP'/
&SURF ID='H2_R4471',
      RGB=204,255,51,
      MATL_ID(1,1)='LHJ6061',
      MATL_MASS_FRACTION(1,1)=1.0,
      THICKNESS(1)=3.0E-3, EXTERNAL_FLUX=4471, RAMP_EF='NUCLEAR_RAMP'/
&SURF ID='H3_R4471',
      RGB=204,255,51,
      MATL_ID(1,1)='LHJ6061',
      MATL_MASS_FRACTION(1,1)=1.0,
      THICKNESS(1)=3.0E-3, EXTERNAL_FLUX=4471, RAMP_EF='NUCLEAR_RAMP'/
&SURF ID='H7_R4471',
      RGB=204,255,51,
      HRRPUA=180.0,
      IGNITION_TEMPERATURE=410.0,
      MATL_ID(1,1)='CRXJ',
      MATL_MASS_FRACTION(1,1)=1.0,
      THICKNESS(1)=2.0E-3, RAMP_Q='Q_RAMP', EXTERNAL_FLUX=4471, RAMP_EF='NUCLEAR_RAMP'/
&SURF ID='RADM_R4471',
      RGB=153,153,153,
      TRANSPARENCY=0.729412,
      MATL_ID(1,1)='EBLXW',
      MATL_MASS_FRACTION(1,1)=1.0,
      THICKNESS(1)=0.004000,
      HRRPUA=75.0,
      IGNITION_TEMPERATURE=400, EXTERNAL_FLUX=4471, RAMP_EF='NUCLEAR_RAMP'/
&SURF ID='AL2024_R4706',
      RGB=153,153,153,
      TRANSPARENCY=0.54902,
      MATL_ID(1,1)='LHJ2024',
      MATL_MASS_FRACTION(1,1)=1.0,
      THICKNESS(1)=0.004000, EXTERNAL_FLUX=4706, RAMP_EF='NUCLEAR_RAMP'/
&SURF ID='AL7075_R4706',
      RGB=153,153,0,
      TRANSPARENCY=0.819608,
      MATL_ID(1,1)='LHJ7075',
      MATL_MASS_FRACTION(1,1)=1.0,
      THICKNESS(1)=0.004000, EXTERNAL_FLUX=4706, RAMP_EF='NUCLEAR_RAMP'/
&SURF ID='CURT_R4706',
      RGB=146,26,223,
      TRANSPARENCY=0.886275,
      MATL_ID(1,1)='NLZW',
      MATL_MASS_FRACTION(1,1)=1.0,
      THICKNESS(1)=0.03,
      IGNITION_TEMPERATURE=250,
      HRRPUA=400.0,
      RAMP_Q='Q_RAMP',
      BURN_AWAY=.FALSE., EXTERNAL_FLUX=4706, RAMP_EF='NUCLEAR_RAMP'/
&SURF ID='H3_R4706',
      RGB=204,255,51,
      MATL_ID(1,1)='LHJ6061',
      MATL_MASS_FRACTION(1,1)=1.0,
      THICKNESS(1)=3.0E-3, EXTERNAL_FLUX=4706, RAMP_EF='NUCLEAR_RAMP'/
&SURF ID='WINS_R4706',
      RGB=146,202,166,
      MATL_ID(1,1)='BXSSL',
      MATL_MASS_FRACTION(1,1)=1.0,
      THICKNESS(1)=0.075,
      HRRPUA=250.0,
      IGNITION_TEMPERATURE=250, EXTERNAL_FLUX=4706, RAMP_EF='NUCLEAR_RAMP'/
&SURF ID='AL7075_R4942',
      RGB=153,153,0,
      TRANSPARENCY=0.819608,
      MATL_ID(1,1)='LHJ7075',
      MATL_MASS_FRACTION(1,1)=1.0,
      THICKNESS(1)=0.004000, EXTERNAL_FLUX=4942, RAMP_EF='NUCLEAR_RAMP'/
&SURF ID='CURT_R4942',
      RGB=146,26,223,
      TRANSPARENCY=0.886275,
      MATL_ID(1,1)='NLZW',
      MATL_MASS_FRACTION(1,1)=1.0,
      THICKNESS(1)=0.03,
      IGNITION_TEMPERATURE=250,
      HRRPUA=400.0,
      RAMP_Q='Q_RAMP',
      BURN_AWAY=.FALSE., EXTERNAL_FLUX=4942, RAMP_EF='NUCLEAR_RAMP'/
&SURF ID='H3_R4942',
      RGB=204,255,51,
      MATL_ID(1,1)='LHJ6061',
      MATL_MASS_FRACTION(1,1)=1.0,
      THICKNESS(1)=3.0E-3, EXTERNAL_FLUX=4942, RAMP_EF='NUCLEAR_RAMP'/
&SURF ID='H7_R4942',
      RGB=204,255,51,
      HRRPUA=180.0,
      IGNITION_TEMPERATURE=410.0,
      MATL_ID(1,1)='CRXJ',
      MATL_MASS_FRACTION(1,1)=1.0,
      THICKNESS(1)=2.0E-3, RAMP_Q='Q_RAMP', EXTERNAL_FLUX=4942, RAMP_EF='NUCLEAR_RAMP'/
&SURF ID='O2TANK_R4942',
      RGB=0,255,153,
      MATL_ID(1,1)='LHJ7075',
      MATL_MASS_FRACTION(1,1)=1.0,
      THICKNESS(1)=5.0E-3, EXTERNAL_FLUX=4942, RAMP_EF='NUCLEAR_RAMP'/
&SURF ID='WINS_R4942',
      RGB=146,202,166,
      MATL_ID(1,1)='BXSSL',
      MATL_MASS_FRACTION(1,1)=1.0,
      THICKNESS(1)=0.075,
      HRRPUA=250.0,
      IGNITION_TEMPERATURE=250, EXTERNAL_FLUX=4942, RAMP_EF='NUCLEAR_RAMP'/
&SURF ID='WINS_R5177',
      RGB=146,202,166,
      MATL_ID(1,1)='BXSSL',
      MATL_MASS_FRACTION(1,1)=1.0,
      THICKNESS(1)=0.075,
      HRRPUA=250.0,
      IGNITION_TEMPERATURE=250, EXTERNAL_FLUX=5177, RAMP_EF='NUCLEAR_RAMP'/
&SURF ID='AL2024_R5412',
      RGB=153,153,153,
      TRANSPARENCY=0.54902,
      MATL_ID(1,1)='LHJ2024',
      MATL_MASS_FRACTION(1,1)=1.0,
      THICKNESS(1)=0.004000, EXTERNAL_FLUX=5412, RAMP_EF='NUCLEAR_RAMP'/
&SURF ID='WINS_R5412',
      RGB=146,202,166,
      MATL_ID(1,1)='BXSSL',
      MATL_MASS_FRACTION(1,1)=1.0,
      THICKNESS(1)=0.075,
      HRRPUA=250.0,
      IGNITION_TEMPERATURE=250, EXTERNAL_FLUX=5412, RAMP_EF='NUCLEAR_RAMP'/
&SURF ID='WINS_R5648',
      RGB=146,202,166,
      MATL_ID(1,1)='BXSSL',
      MATL_MASS_FRACTION(1,1)=1.0,
      THICKNESS(1)=0.075,
      HRRPUA=250.0,
      IGNITION_TEMPERATURE=250, EXTERNAL_FLUX=5648, RAMP_EF='NUCLEAR_RAMP'/
&SURF ID='AL2024_R5883',
      RGB=153,153,153,
      TRANSPARENCY=0.54902,
      MATL_ID(1,1)='LHJ2024',
      MATL_MASS_FRACTION(1,1)=1.0,
      THICKNESS(1)=0.004000, EXTERNAL_FLUX=5883, RAMP_EF='NUCLEAR_RAMP'/
&SURF ID='AL5052_R5883',
      RGB=255,255,51,
      TRANSPARENCY=0.827451,
      MATL_ID(1,1)='LHJ5052',
      MATL_MASS_FRACTION(1,1)=1.0,
      THICKNESS(1)=1.5E-3, EXTERNAL_FLUX=5883, RAMP_EF='NUCLEAR_RAMP'/
&SURF ID='CURT_R5883',
      RGB=146,26,223,
      TRANSPARENCY=0.886275,
      MATL_ID(1,1)='NLZW',
      MATL_MASS_FRACTION(1,1)=1.0,
      THICKNESS(1)=0.03,
      IGNITION_TEMPERATURE=250,
      HRRPUA=400.0,
      RAMP_Q='Q_RAMP',
      BURN_AWAY=.FALSE., EXTERNAL_FLUX=5883, RAMP_EF='NUCLEAR_RAMP'/
&SURF ID='H1_R5883',
      RGB=204,255,51,
      MATL_ID(1,1)='LHJ6061',
      MATL_MASS_FRACTION(1,1)=1.0,
      THICKNESS(1)=3.0E-3, EXTERNAL_FLUX=5883, RAMP_EF='NUCLEAR_RAMP'/
&SURF ID='H2_R5883',
      RGB=204,255,51,
      MATL_ID(1,1)='LHJ6061',
      MATL_MASS_FRACTION(1,1)=1.0,
      THICKNESS(1)=3.0E-3, EXTERNAL_FLUX=5883, RAMP_EF='NUCLEAR_RAMP'/
&SURF ID='RADM_R5883',
      RGB=153,153,153,
      TRANSPARENCY=0.729412,
      MATL_ID(1,1)='EBLXW',
      MATL_MASS_FRACTION(1,1)=1.0,
      THICKNESS(1)=0.004000,
      HRRPUA=75.0,
      IGNITION_TEMPERATURE=400, EXTERNAL_FLUX=5883, RAMP_EF='NUCLEAR_RAMP'/
&SURF ID='WINS_R5883',
      RGB=146,202,166,
      MATL_ID(1,1)='BXSSL',
      MATL_MASS_FRACTION(1,1)=1.0,
      THICKNESS(1)=0.075,
      HRRPUA=250.0,
      IGNITION_TEMPERATURE=250, EXTERNAL_FLUX=5883, RAMP_EF='NUCLEAR_RAMP'/
! Voxel illuminated face overlays
&VENT ID='VF00206', XB=3.400000,3.500000,0.800000,0.800000,0.400000,0.500000, IOR=2, SURF_ID='SEAT_R0706' /
&VENT ID='VF00207', XB=3.500000,3.800000,0.800000,0.800000,0.400000,0.500000, IOR=2, SURF_ID='SEAT_R0471' /
&VENT ID='VF00208', XB=3.400000,3.500000,0.700000,0.800000,0.500000,0.500000, IOR=3, SURF_ID='SEAT_R2588' /
&VENT ID='VF00209', XB=3.500000,3.600000,0.700000,0.800000,0.500000,0.500000, IOR=3, SURF_ID='SEAT_R2118' /
&VENT ID='VF00210', XB=3.600000,3.800000,0.700000,0.800000,0.500000,0.500000, IOR=3, SURF_ID='SEAT_R2588' /
&VENT ID='VF00224', XB=0.000000,0.100000,-0.100000,0.100000,-0.200000,-0.200000, IOR=3, SURF_ID='RADM_R5883' /
&VENT ID='VF00225', XB=0.000000,0.100000,-0.100000,0.100000,0.200000,0.200000, IOR=3, SURF_ID='RADM_R5883' /
&VENT ID='VF00226', XB=0.100000,0.200000,-0.100000,0.100000,-0.300000,-0.300000, IOR=3, SURF_ID='RADM_R5883' /
&VENT ID='VF00227', XB=0.100000,0.200000,-0.200000,-0.100000,-0.200000,-0.200000, IOR=3, SURF_ID='RADM_R5883' /
&VENT ID='VF00228', XB=0.100000,0.200000,0.100000,0.200000,-0.200000,-0.200000, IOR=3, SURF_ID='RADM_R2824' /
&VENT ID='VF00229', XB=0.100000,0.200000,-0.200000,-0.100000,0.200000,0.200000, IOR=3, SURF_ID='RADM_R5883' /
&VENT ID='VF00230', XB=0.100000,0.200000,0.100000,0.200000,0.200000,0.200000, IOR=3, SURF_ID='RADM_R5883' /
&VENT ID='VF00231', XB=0.100000,0.200000,-0.100000,0.100000,0.300000,0.300000, IOR=3, SURF_ID='RADM_R5883' /
&VENT ID='VF00236', XB=0.200000,0.300000,-0.300000,-0.200000,0.200000,0.200000, IOR=3, SURF_ID='RADM_R5883' /
&VENT ID='VF00237', XB=0.200000,0.300000,0.200000,0.300000,0.200000,0.200000, IOR=3, SURF_ID='RADM_R5883' /
&VENT ID='VF00238', XB=0.200000,0.300000,-0.200000,-0.100000,0.300000,0.300000, IOR=3, SURF_ID='RADM_R5883' /
&VENT ID='VF00239', XB=0.200000,0.300000,0.100000,0.200000,0.300000,0.300000, IOR=3, SURF_ID='RADM_R5883' /
&VENT ID='VF00241', XB=0.200000,0.400000,-0.100000,0.100000,0.400000,0.400000, IOR=3, SURF_ID='RADM_R5883' /
&VENT ID='VF00247', XB=0.300000,0.400000,0.300000,0.400000,-0.200000,-0.200000, IOR=3, SURF_ID='RADM_R5883' /
&VENT ID='VF00248', XB=0.300000,0.400000,-0.400000,-0.300000,0.200000,0.200000, IOR=3, SURF_ID='RADM_R5883' /
&VENT ID='VF00249', XB=0.300000,0.400000,0.300000,0.400000,0.200000,0.200000, IOR=3, SURF_ID='RADM_R5883' /
&VENT ID='VF00250', XB=0.300000,0.400000,-0.300000,-0.200000,0.300000,0.300000, IOR=3, SURF_ID='RADM_R5883' /
&VENT ID='VF00251', XB=0.300000,0.400000,0.200000,0.300000,0.300000,0.300000, IOR=3, SURF_ID='RADM_R5883' /
&VENT ID='VF00252', XB=0.300000,0.400000,-0.200000,-0.100000,0.400000,0.400000, IOR=3, SURF_ID='RADM_R5883' /
&VENT ID='VF00253', XB=0.300000,0.400000,0.100000,0.200000,0.400000,0.400000, IOR=3, SURF_ID='RADM_R5883' /
! ... 364 like lines cut
&VENT ID='VF00845', XB=1.400000,1.500000,0.800000,0.900000,0.500000,0.500000, IOR=3, SURF_ID='AL2024_R1412' /
&VENT ID='VF00847', XB=1.400000,1.500000,0.500000,0.600000,0.800000,0.800000, IOR=3, SURF_ID='AL2024_R2824' /
&VENT ID='VF00848', XB=1.400000,1.500000,-0.500000,-0.400000,0.900000,0.900000, IOR=3, SURF_ID='AL2024_R2824' /
&VENT ID='VF00850', XB=1.400000,1.500000,0.300000,0.500000,0.900000,0.900000, IOR=3, SURF_ID='AL2024_R2824' /
&VENT ID='VF00857', XB=1.400000,1.533333,0.700000,0.800000,0.700000,0.700000, IOR=3, SURF_ID='AL2024_R5883' /
&VENT ID='VF00858', XB=1.533333,1.600000,0.700000,0.800000,0.700000,0.700000, IOR=3, SURF_ID='AL2024_R2824' /
&VENT ID='VF00859', XB=1.400000,1.466667,-0.700000,-0.600000,0.800000,0.800000, IOR=3, SURF_ID='AL2024_R5883' /
&VENT ID='VF00861', XB=1.400000,1.466667,0.600000,0.700000,0.800000,0.800000, IOR=3, SURF_ID='AL2024_R5883' /
&VENT ID='VF00862', XB=1.466667,1.533333,0.600000,0.700000,0.800000,0.800000, IOR=3, SURF_ID='AL2024_R2824' /
&VENT ID='VF00863', XB=1.533333,1.600000,0.600000,0.700000,0.800000,0.800000, IOR=3, SURF_ID='AL2024_R1412' /
&VENT ID='VF00864', XB=1.400000,1.466667,-0.300000,0.300000,1.000000,1.000000, IOR=3, SURF_ID='AL2024_R5883' /
&VENT ID='VF00865', XB=1.466667,1.533333,-0.300000,0.000000,1.000000,1.000000, IOR=3, SURF_ID='AL2024_R5883' /
&VENT ID='VF00866', XB=1.466667,1.533333,0.000000,0.100000,1.000000,1.000000, IOR=3, SURF_ID='AL2024_R2824' /
&VENT ID='VF00867', XB=1.466667,1.533333,0.100000,0.300000,1.000000,1.000000, IOR=3, SURF_ID='AL2024_R5883' /
&VENT ID='VF00868', XB=1.533333,1.600000,-0.300000,0.000000,1.000000,1.000000, IOR=3, SURF_ID='AL2024_R2824' /
&VENT ID='VF00869', XB=1.533333,1.600000,0.000000,0.100000,1.000000,1.000000, IOR=3, SURF_ID='AL2024_R1412' /
&VENT ID='VF00870', XB=1.533333,1.600000,0.100000,0.300000,1.000000,1.000000, IOR=3, SURF_ID='AL2024_R2824' /
&VENT ID='VF00876', XB=1.500000,1.600000,0.900000,1.000000,0.300000,0.300000, IOR=3, SURF_ID='AL2024_R2824' /
&VENT ID='VF00878', XB=1.500000,1.600000,0.800000,0.900000,0.600000,0.600000, IOR=3, SURF_ID='AL2024_R1412' /
&VENT ID='VF00886', XB=1.500000,1.600000,0.500000,0.600000,0.900000,0.900000, IOR=3, SURF_ID='AL2024_R5883' /
! ... 594 like lines cut
&VENT ID='VF03496', XB=1.700000,1.800000,-0.400000,-0.300000,1.100000,1.100000, IOR=3, SURF_ID='WINS_R2353' /
&VENT ID='VF03497', XB=1.700000,1.800000,0.300000,0.400000,1.100000,1.100000, IOR=3, SURF_ID='WINS_R5412' /
&VENT ID='VF03498', XB=1.700000,1.800000,-0.300000,0.300000,1.200000,1.200000, IOR=3, SURF_ID='WINS_R5883' /
&VENT ID='VF03499', XB=1.800000,1.900000,-0.300000,0.200000,1.200000,1.200000, IOR=3, SURF_ID='WINS_R4236' /
&VENT ID='VF03500', XB=1.800000,1.900000,0.200000,0.300000,1.200000,1.200000, IOR=3, SURF_ID='WINS_R4000' /
&VENT ID='VF03501', XB=1.800000,1.900000,-0.400000,-0.300000,1.200000,1.200000, IOR=3, SURF_ID='WINS_R4236' /
&VENT ID='VF03502', XB=1.800000,1.900000,0.300000,0.400000,1.200000,1.200000, IOR=3, SURF_ID='WINS_R4236' /
&VENT ID='VF03504', XB=1.900000,2.000000,-0.200000,0.200000,1.300000,1.300000, IOR=3, SURF_ID='WINS_R4236' /
&VENT ID='VF03506', XB=1.900000,1.966667,-0.500000,-0.400000,1.200000,1.200000, IOR=3, SURF_ID='WINS_R5883' /
&VENT ID='VF03507', XB=1.966667,2.033333,-0.500000,-0.400000,1.200000,1.200000, IOR=3, SURF_ID='WINS_R5648' /
&VENT ID='VF03508', XB=2.033333,2.100000,-0.500000,-0.400000,1.200000,1.200000, IOR=3, SURF_ID='WINS_R4000' /
&VENT ID='VF03509', XB=1.900000,2.033333,0.400000,0.500000,1.200000,1.200000, IOR=3, SURF_ID='WINS_R5883' /
&VENT ID='VF03510', XB=2.033333,2.100000,0.400000,0.500000,1.200000,1.200000, IOR=3, SURF_ID='WINS_R4000' /
&VENT ID='VF03512', XB=1.900000,2.033333,0.300000,0.400000,1.300000,1.300000, IOR=3, SURF_ID='WINS_R5883' /
&VENT ID='VF03513', XB=2.033333,2.100000,0.300000,0.400000,1.300000,1.300000, IOR=3, SURF_ID='WINS_R4000' /
&VENT ID='VF03514', XB=2.000000,2.100000,-0.200000,0.200000,1.400000,1.400000, IOR=3, SURF_ID='WINS_R4236' /
&VENT ID='VF03515', XB=2.000000,2.133333,-0.600000,-0.500000,1.200000,1.200000, IOR=3, SURF_ID='WINS_R4706' /
&VENT ID='VF03516', XB=2.133333,2.200000,-0.600000,-0.500000,1.200000,1.200000, IOR=3, SURF_ID='WINS_R3059' /
&VENT ID='VF03517', XB=2.000000,2.133333,0.500000,0.600000,1.200000,1.200000, IOR=3, SURF_ID='WINS_R5883' /
&VENT ID='VF03518', XB=2.133333,2.200000,0.500000,0.600000,1.200000,1.200000, IOR=3, SURF_ID='WINS_R4942' /
! ... 377 like lines cut
&VENT ID='VF03955', XB=2.100000,2.200000,0.000000,0.200000,0.100000,0.100000, IOR=3, SURF_ID='AL7075_R1883' /
&VENT ID='VF03956', XB=2.100000,2.200000,0.200000,0.300000,0.100000,0.100000, IOR=3, SURF_ID='AL7075_R3765' /
&VENT ID='VF03960', XB=2.100000,2.200000,-0.600000,-0.500000,0.100000,0.100000, IOR=3, SURF_ID='AL7075_R1412' /
&VENT ID='VF03961', XB=2.100000,2.200000,-0.500000,-0.400000,0.100000,0.100000, IOR=3, SURF_ID='AL7075_R1177' /
&VENT ID='VF03965', XB=2.100000,2.200000,0.300000,0.400000,0.100000,0.100000, IOR=3, SURF_ID='AL7075_R4000' /
&VENT ID='VF03966', XB=2.100000,2.200000,0.400000,0.500000,0.100000,0.100000, IOR=3, SURF_ID='AL7075_R4706' /
&VENT ID='VF03970', XB=2.500000,2.600000,0.600000,0.700000,0.100000,0.100000, IOR=3, SURF_ID='AL7075_R4942' /
&VENT ID='VF03973', XB=2.600000,2.700000,0.500000,0.600000,0.100000,0.100000, IOR=3, SURF_ID='AL7075_R4236' /
&VENT ID='VF03974', XB=2.600000,2.700000,0.600000,0.700000,0.100000,0.100000, IOR=3, SURF_ID='AL7075_R4000' /
&VENT ID='VF03977', XB=2.700000,2.800000,0.500000,0.600000,0.100000,0.100000, IOR=3, SURF_ID='AL7075_R4942' /
&VENT ID='VF03978', XB=2.700000,2.800000,0.600000,0.700000,0.100000,0.100000, IOR=3, SURF_ID='AL7075_R4706' /
&VENT ID='VF03981', XB=2.800000,2.900000,0.600000,0.700000,0.100000,0.100000, IOR=3, SURF_ID='AL7075_R4236' /
&VENT ID='VF03982', XB=2.800000,2.900000,0.700000,0.800000,0.100000,0.100000, IOR=3, SURF_ID='AL7075_R2118' /
&VENT ID='VF03985', XB=2.900000,3.000000,0.600000,0.700000,0.100000,0.100000, IOR=3, SURF_ID='AL7075_R4000' /
&VENT ID='VF03986', XB=2.900000,3.000000,0.700000,0.800000,0.100000,0.100000, IOR=3, SURF_ID='AL7075_R2588' /
&VENT ID='VF03989', XB=3.000000,3.100000,0.600000,0.700000,0.100000,0.100000, IOR=3, SURF_ID='AL7075_R4236' /
&VENT ID='VF03990', XB=3.000000,3.100000,0.700000,0.800000,0.100000,0.100000, IOR=3, SURF_ID='AL7075_R1883' /
&VENT ID='VF03993', XB=3.100000,3.200000,0.600000,0.800000,0.100000,0.100000, IOR=3, SURF_ID='AL7075_R4706' /
&VENT ID='VF03996', XB=3.200000,3.300000,0.600000,0.700000,0.100000,0.100000, IOR=3, SURF_ID='AL7075_R1412' /
&VENT ID='VF03997', XB=3.200000,3.300000,0.700000,0.800000,0.100000,0.100000, IOR=3, SURF_ID='AL7075_R4706' /
! ... 35 like lines cut
&VENT ID='VF04249', XB=2.000000,2.100000,-0.300000,-0.200000,1.000000,1.000000, IOR=3, SURF_ID='CURT_R2588' /
&VENT ID='VF04250', XB=2.000000,2.100000,0.200000,0.300000,1.000000,1.000000, IOR=3, SURF_ID='CURT_R4942' /
&VENT ID='VF04251', XB=2.000000,2.100000,-0.100000,0.100000,1.100000,1.100000, IOR=3, SURF_ID='CURT_R4942' /
&VENT ID='VF04252', XB=2.000000,2.066667,-0.200000,-0.100000,1.100000,1.100000, IOR=3, SURF_ID='CURT_R4706' /
&VENT ID='VF04253', XB=2.066667,2.133333,-0.200000,-0.100000,1.100000,1.100000, IOR=3, SURF_ID='CURT_R4000' /
&VENT ID='VF04254', XB=2.133333,2.200000,-0.200000,-0.100000,1.100000,1.100000, IOR=3, SURF_ID='CURT_R4706' /
&VENT ID='VF04255', XB=2.000000,2.066667,0.100000,0.200000,1.100000,1.100000, IOR=3, SURF_ID='CURT_R2353' /
&VENT ID='VF04258', XB=2.100000,2.200000,0.300000,0.400000,1.000000,1.000000, IOR=3, SURF_ID='CURT_R3530' /
&VENT ID='VF04260', XB=2.100000,2.200000,0.200000,0.300000,1.100000,1.100000, IOR=3, SURF_ID='CURT_R2118' /
&VENT ID='VF04261', XB=2.100000,2.200000,-0.100000,0.100000,1.200000,1.200000, IOR=3, SURF_ID='CURT_R4236' /
&VENT ID='VF04262', XB=2.200000,2.300000,-0.500000,-0.400000,1.000000,1.000000, IOR=3, SURF_ID='CURT_R1883' /
&VENT ID='VF04263', XB=2.200000,2.300000,0.400000,0.500000,1.000000,1.000000, IOR=3, SURF_ID='CURT_R4942' /
&VENT ID='VF04265', XB=2.200000,2.300000,0.300000,0.400000,1.100000,1.100000, IOR=3, SURF_ID='CURT_R4942' /
&VENT ID='VF04266', XB=2.200000,2.300000,-0.300000,-0.200000,1.200000,1.200000, IOR=3, SURF_ID='CURT_R2118' /
&VENT ID='VF04267', XB=2.200000,2.300000,-0.200000,-0.100000,1.200000,1.200000, IOR=3, SURF_ID='CURT_R4236' /
&VENT ID='VF04269', XB=2.200000,2.300000,0.200000,0.300000,1.200000,1.200000, IOR=3, SURF_ID='CURT_R2118' /
&VENT ID='VF04270', XB=2.200000,2.300000,-0.100000,0.100000,1.300000,1.300000, IOR=3, SURF_ID='CURT_R4236' /
&VENT ID='VF04271', XB=2.300000,2.400000,-0.600000,-0.500000,1.000000,1.000000, IOR=3, SURF_ID='CURT_R3530' /
&VENT ID='VF04272', XB=2.300000,2.400000,0.500000,0.600000,1.000000,1.000000, IOR=3, SURF_ID='CURT_R4706' /
&VENT ID='VF04273', XB=2.300000,2.400000,-0.500000,-0.400000,1.100000,1.100000, IOR=3, SURF_ID='CURT_R1883' /
! ... 215 like lines cut
&VENT ID='VF04701', XB=3.600000,3.600000,0.900000,1.000000,0.100000,0.500000, IOR=1, SURF_ID='O2TANK_R1177' /
&VENT ID='VF04702', XB=3.500000,3.600000,1.000000,1.000000,0.100000,0.200000, IOR=2, SURF_ID='O2TANK_R0471' /
&VENT ID='VF04703', XB=3.500000,3.600000,1.000000,1.000000,0.200000,0.400000, IOR=2, SURF_ID='O2TANK_R0706' /
&VENT ID='VF04704', XB=3.500000,3.600000,1.000000,1.000000,0.400000,0.500000, IOR=2, SURF_ID='O2TANK_R0471' /
&VENT ID='VF04705', XB=3.500000,3.600000,0.900000,1.000000,0.500000,0.500000, IOR=3, SURF_ID='O2TANK_R4942' /
&VENT ID='VF04732', XB=0.600000,0.700000,0.200000,0.200000,0.400000,0.500000, IOR=2, SURF_ID='H1_R0706' /
&VENT ID='VF04733', XB=0.600000,0.700000,-0.300000,0.200000,0.500000,0.500000, IOR=3, SURF_ID='H1_R5883' /
&VENT ID='VF04735', XB=0.700000,0.900000,0.200000,0.200000,0.400000,0.600000, IOR=2, SURF_ID='H1_R0706' /
&VENT ID='VF04736', XB=0.700000,0.900000,-0.300000,0.200000,0.600000,0.600000, IOR=3, SURF_ID='H1_R5883' /
&VENT ID='VF04737', XB=1.000000,1.000000,-0.300000,0.200000,0.500000,0.600000, IOR=1, SURF_ID='H1_R1412' /
&VENT ID='VF04738', XB=0.900000,1.000000,0.200000,0.200000,0.500000,0.600000, IOR=2, SURF_ID='H1_R0706' /
&VENT ID='VF04739', XB=0.900000,1.000000,-0.300000,0.200000,0.600000,0.600000, IOR=3, SURF_ID='H1_R5883' /
&VENT ID='VF04771', XB=3.300000,3.366667,1.400000,1.400000,-0.600000,-0.500000, IOR=2, SURF_ID='H2_R0471' /
&VENT ID='VF04772', XB=3.300000,3.366667,1.400000,1.400000,-0.500000,-0.400000, IOR=2, SURF_ID='H2_R0706' /
&VENT ID='VF04774', XB=3.366667,3.433333,1.400000,1.400000,-0.500000,-0.400000, IOR=2, SURF_ID='H2_R0706' /
&VENT ID='VF04777', XB=0.600000,1.000000,0.400000,0.400000,-0.300000,0.300000, IOR=2, SURF_ID='H2_R0706' /
&VENT ID='VF04778', XB=0.600000,0.900000,-0.500000,-0.400000,0.300000,0.300000, IOR=3, SURF_ID='H2_R5883' /
&VENT ID='VF04780', XB=0.600000,0.900000,0.200000,0.400000,0.300000,0.300000, IOR=3, SURF_ID='H2_R5883' /
&VENT ID='VF04781', XB=0.900000,1.000000,-0.500000,-0.400000,0.300000,0.300000, IOR=3, SURF_ID='H2_R5883' /
&VENT ID='VF04782', XB=0.900000,1.000000,-0.400000,0.200000,0.300000,0.300000, IOR=3, SURF_ID='H2_R2824' /
&VENT ID='VF04783', XB=0.900000,1.000000,0.200000,0.400000,0.300000,0.300000, IOR=3, SURF_ID='H2_R5883' /
&VENT ID='VF04788', XB=1.000000,1.100000,0.200000,0.300000,0.400000,0.400000, IOR=3, SURF_ID='H2_R1412' /
&VENT ID='VF04790', XB=1.000000,1.200000,-0.500000,-0.400000,0.400000,0.400000, IOR=3, SURF_ID='H2_R5883' /
&VENT ID='VF04792', XB=1.200000,1.300000,-0.500000,-0.400000,0.400000,0.400000, IOR=3, SURF_ID='H2_R4471' /
&VENT ID='VF04796', XB=1.000000,1.100000,0.400000,0.400000,-0.300000,0.400000, IOR=2, SURF_ID='H2_R0706' /
! ... 152 like lines cut
! Redundant surface probes
&DEVC ID='P_RADM_00_WT', QUANTITY='WALL TEMPERATURE', XYZ=0.0500,0.0000,-0.1650, IOR=3 /
&DEVC ID='P_RADM_00_HF', QUANTITY='NET HEAT FLUX', XYZ=0.0500,0.0000,-0.1650, IOR=3 /
&DEVC ID='P_RADM_01_WT', QUANTITY='WALL TEMPERATURE', XYZ=1.3500,0.0000,1.0350, IOR=3 /
&DEVC ID='P_RADM_01_HF', QUANTITY='NET HEAT FLUX', XYZ=1.3500,0.0000,1.0350, IOR=3 /
&DEVC ID='P_RADM_02_WT', QUANTITY='WALL TEMPERATURE', XYZ=1.2500,0.8500,-0.0650, IOR=3 /
&DEVC ID='P_RADM_02_HF', QUANTITY='NET HEAT FLUX', XYZ=1.2500,0.8500,-0.0650, IOR=3 /
&DEVC ID='P_RADM_03_WT', QUANTITY='WALL TEMPERATURE', XYZ=1.0500,-0.7500,-0.1650, IOR=3 /
&DEVC ID='P_RADM_03_HF', QUANTITY='NET HEAT FLUX', XYZ=1.0500,-0.7500,-0.1650, IOR=3 /
&DEVC ID='P_RADM_04_WT', QUANTITY='WALL TEMPERATURE', XYZ=0.6500,0.3500,0.5350, IOR=3 /
&DEVC ID='P_RADM_04_HF', QUANTITY='NET HEAT FLUX', XYZ=0.6500,0.3500,0.5350, IOR=3 /
&DEVC ID='P_RADM_05_WT', QUANTITY='WALL TEMPERATURE', XYZ=0.7500,-0.4500,0.5350, IOR=3 /
&DEVC ID='P_RADM_05_HF', QUANTITY='NET HEAT FLUX', XYZ=0.7500,-0.4500,0.5350, IOR=3 /
&DEVC ID='P_RADM_06_WT', QUANTITY='WALL TEMPERATURE', XYZ=0.6667,0.4500,-0.3650, IOR=3 /
&DEVC ID='P_RADM_06_HF', QUANTITY='NET HEAT FLUX', XYZ=0.6667,0.4500,-0.3650, IOR=3 /
&DEVC ID='P_RADM_07_WT', QUANTITY='WALL TEMPERATURE', XYZ=1.4350,0.0000,-0.9500, IOR=1 /
&DEVC ID='P_RADM_07_HF', QUANTITY='NET HEAT FLUX', XYZ=1.4350,0.0000,-0.9500, IOR=1 /
&DEVC ID='P_RADM_08_WT', QUANTITY='WALL TEMPERATURE', XYZ=1.2000,0.6500,0.6350, IOR=3 /
&DEVC ID='P_RADM_08_HF', QUANTITY='NET HEAT FLUX', XYZ=1.2000,0.6500,0.6350, IOR=3 /
&DEVC ID='P_RADM_09_WT', QUANTITY='WALL TEMPERATURE', XYZ=1.2500,-0.7500,0.5350, IOR=3 /
&DEVC ID='P_RADM_09_HF', QUANTITY='NET HEAT FLUX', XYZ=1.2500,-0.7500,0.5350, IOR=3 /
&DEVC ID='P_WINS_00_WT', QUANTITY='WALL TEMPERATURE', XYZ=1.7500,0.0000,1.2350, IOR=3 /
&DEVC ID='P_WINS_00_HF', QUANTITY='NET HEAT FLUX', XYZ=1.7500,0.0000,1.2350, IOR=3 /
&DEVC ID='P_WINS_01_WT', QUANTITY='WALL TEMPERATURE', XYZ=4.0500,1.2500,1.2350, IOR=3 /
&DEVC ID='P_WINS_01_HF', QUANTITY='NET HEAT FLUX', XYZ=4.0500,1.2500,1.2350, IOR=3 /
&DEVC ID='P_WINS_02_WT', QUANTITY='WALL TEMPERATURE', XYZ=4.0125,-1.2500,1.2350, IOR=3 /
&DEVC ID='P_WINS_02_HF', QUANTITY='NET HEAT FLUX', XYZ=4.0125,-1.2500,1.2350, IOR=3 /
&DEVC ID='P_WINS_03_WT', QUANTITY='WALL TEMPERATURE', XYZ=2.7500,0.9500,1.2350, IOR=3 /
&DEVC ID='P_WINS_03_HF', QUANTITY='NET HEAT FLUX', XYZ=2.7500,0.9500,1.2350, IOR=3 /
&DEVC ID='P_WINS_04_WT', QUANTITY='WALL TEMPERATURE', XYZ=2.6500,-0.9500,1.1350, IOR=3 /
&DEVC ID='P_WINS_04_HF', QUANTITY='NET HEAT FLUX', XYZ=2.6500,-0.9500,1.1350, IOR=3 /
&DEVC ID='P_WINS_05_WT', QUANTITY='WALL TEMPERATURE', XYZ=2.5500,-0.2500,1.8350, IOR=3 /
&DEVC ID='P_WINS_05_HF', QUANTITY='NET HEAT FLUX', XYZ=2.5500,-0.2500,1.8350, IOR=3 /
&DEVC ID='P_WINS_06_WT', QUANTITY='WALL TEMPERATURE', XYZ=3.4125,0.8500,1.6350, IOR=3 /
&DEVC ID='P_WINS_06_HF', QUANTITY='NET HEAT FLUX', XYZ=3.4125,0.8500,1.6350, IOR=3 /
&DEVC ID='P_WINS_07_WT', QUANTITY='WALL TEMPERATURE', XYZ=2.6500,0.4500,1.7350, IOR=3 /
&DEVC ID='P_WINS_07_HF', QUANTITY='NET HEAT FLUX', XYZ=2.6500,0.4500,1.7350, IOR=3 /
&DEVC ID='P_WINS_08_WT', QUANTITY='WALL TEMPERATURE', XYZ=2.0667,0.5500,1.2350, IOR=3 /
&DEVC ID='P_WINS_08_HF', QUANTITY='NET HEAT FLUX', XYZ=2.0667,0.5500,1.2350, IOR=3 /
&DEVC ID='P_WINS_09_WT', QUANTITY='WALL TEMPERATURE', XYZ=3.4500,-0.9500,1.5350, IOR=3 /
&DEVC ID='P_WINS_09_HF', QUANTITY='NET HEAT FLUX', XYZ=3.4500,-0.9500,1.5350, IOR=3 /
&DEVC ID='P_BED_01_WT', QUANTITY='WALL TEMPERATURE', XYZ=6.0000,-0.6650,0.6000, IOR=2 /
&DEVC ID='P_BED_01_HF', QUANTITY='NET HEAT FLUX', XYZ=6.0000,-0.6650,0.6000, IOR=2 /
&DEVC ID='P_BED_02_WT', QUANTITY='WALL TEMPERATURE', XYZ=6.0000,-1.0000,0.7350, IOR=3 /
&DEVC ID='P_BED_02_HF', QUANTITY='NET HEAT FLUX', XYZ=6.0000,-1.0000,0.7350, IOR=3 /
&DEVC ID='P_CURT_00_WT', QUANTITY='WALL TEMPERATURE', XYZ=3.5333,0.7500,1.7350, IOR=3 /
&DEVC ID='P_CURT_00_HF', QUANTITY='NET HEAT FLUX', XYZ=3.5333,0.7500,1.7350, IOR=3 /
&DEVC ID='P_CURT_01_WT', QUANTITY='WALL TEMPERATURE', XYZ=6.0350,0.0500,1.0000, IOR=1 /
&DEVC ID='P_CURT_01_HF', QUANTITY='NET HEAT FLUX', XYZ=6.0350,0.0500,1.0000, IOR=1 /
&DEVC ID='P_CURT_02_WT', QUANTITY='WALL TEMPERATURE', XYZ=3.8500,-1.1500,1.0350, IOR=3 /
&DEVC ID='P_CURT_02_HF', QUANTITY='NET HEAT FLUX', XYZ=3.8500,-1.1500,1.0350, IOR=3 /
&DEVC ID='P_CURT_03_WT', QUANTITY='WALL TEMPERATURE', XYZ=2.0333,-0.1500,1.1350, IOR=3 /
&DEVC ID='P_CURT_03_HF', QUANTITY='NET HEAT FLUX', XYZ=2.0333,-0.1500,1.1350, IOR=3 /
&DEVC ID='P_CURT_04_WT', QUANTITY='WALL TEMPERATURE', XYZ=2.6500,0.7500,1.0350, IOR=3 /
&DEVC ID='P_CURT_04_HF', QUANTITY='NET HEAT FLUX', XYZ=2.6500,0.7500,1.0350, IOR=3 /
&DEVC ID='P_CURT_05_WT', QUANTITY='WALL TEMPERATURE', XYZ=3.0500,-0.5500,1.7350, IOR=3 /
&DEVC ID='P_CURT_05_HF', QUANTITY='NET HEAT FLUX', XYZ=3.0500,-0.5500,1.7350, IOR=3 /
&DEVC ID='P_CURT_06_WT', QUANTITY='WALL TEMPERATURE', XYZ=4.0000,1.1500,1.0350, IOR=3 /
&DEVC ID='P_CURT_06_HF', QUANTITY='NET HEAT FLUX', XYZ=4.0000,1.1500,1.0350, IOR=3 /
&DEVC ID='P_CURT_07_WT', QUANTITY='WALL TEMPERATURE', XYZ=2.5500,-0.5500,1.2350, IOR=3 /
&DEVC ID='P_CURT_07_HF', QUANTITY='NET HEAT FLUX', XYZ=2.5500,-0.5500,1.2350, IOR=3 /
&DEVC ID='P_CURT_08_WT', QUANTITY='WALL TEMPERATURE', XYZ=3.2500,0.9500,1.1350, IOR=3 /
&DEVC ID='P_CURT_08_HF', QUANTITY='NET HEAT FLUX', XYZ=3.2500,0.9500,1.1350, IOR=3 /
&DEVC ID='P_CURT_09_WT', QUANTITY='WALL TEMPERATURE', XYZ=2.2500,0.3500,1.1350, IOR=3 /
&DEVC ID='P_CURT_09_HF', QUANTITY='NET HEAT FLUX', XYZ=2.2500,0.3500,1.1350, IOR=3 /
&DEVC ID='P_U4_00_WT', QUANTITY='WALL TEMPERATURE', XYZ=8.4639,1.1850,0.9500, IOR=2 /
&DEVC ID='P_U4_00_HF', QUANTITY='NET HEAT FLUX', XYZ=8.4639,1.1850,0.9500, IOR=2 /
&DEVC ID='P_U4_01_WT', QUANTITY='WALL TEMPERATURE', XYZ=8.9739,0.0000,0.9500, IOR=1 /
&DEVC ID='P_U4_01_HF', QUANTITY='NET HEAT FLUX', XYZ=8.9739,0.0000,0.9500, IOR=1 /
&DEVC ID='P_U4_02_WT', QUANTITY='WALL TEMPERATURE', XYZ=8.8861,0.9850,0.9500, IOR=2 /
&DEVC ID='P_U4_02_HF', QUANTITY='NET HEAT FLUX', XYZ=8.8861,0.9850,0.9500, IOR=2 /
&DEVC ID='P_U4_03_WT', QUANTITY='WALL TEMPERATURE', XYZ=8.6750,1.0850,0.9500, IOR=2 /
&DEVC ID='P_U4_03_HF', QUANTITY='NET HEAT FLUX', XYZ=8.6750,1.0850,0.9500, IOR=2 /
&DEVC ID='P_U4_04_WT', QUANTITY='WALL TEMPERATURE', XYZ=8.7806,1.0350,0.9500, IOR=2 /
&DEVC ID='P_U4_04_HF', QUANTITY='NET HEAT FLUX', XYZ=8.7806,1.0350,0.9500, IOR=2 /
&DEVC ID='P_U4_05_WT', QUANTITY='WALL TEMPERATURE', XYZ=8.5694,1.1350,0.9500, IOR=2 /
&DEVC ID='P_U4_05_HF', QUANTITY='NET HEAT FLUX', XYZ=8.5694,1.1350,0.9500, IOR=2 /
&DEVC ID='P_U4_06_WT', QUANTITY='WALL TEMPERATURE', XYZ=8.4461,1.1750,0.9500, IOR=1 /
&DEVC ID='P_U4_06_HF', QUANTITY='NET HEAT FLUX', XYZ=8.4461,1.1750,0.9500, IOR=1 /
&DEVC ID='P_U4_07_WT', QUANTITY='WALL TEMPERATURE', XYZ=8.8683,0.9750,0.9500, IOR=1 /
&DEVC ID='P_U4_07_HF', QUANTITY='NET HEAT FLUX', XYZ=8.8683,0.9750,0.9500, IOR=1 /
&DEVC ID='P_U4_08_WT', QUANTITY='WALL TEMPERATURE', XYZ=8.6572,1.0750,0.9500, IOR=1 /
&DEVC ID='P_U4_08_HF', QUANTITY='NET HEAT FLUX', XYZ=8.6572,1.0750,0.9500, IOR=1 /
&DEVC ID='P_U4_09_WT', QUANTITY='WALL TEMPERATURE', XYZ=8.5517,1.1250,0.9500, IOR=1 /
&DEVC ID='P_U4_09_HF', QUANTITY='NET HEAT FLUX', XYZ=8.5517,1.1250,0.9500, IOR=1 /
&DEVC ID='P_SEAT_00_WT', QUANTITY='WALL TEMPERATURE', XYZ=3.4500,0.7500,0.5350, IOR=3 /
&DEVC ID='P_SEAT_00_HF', QUANTITY='NET HEAT FLUX', XYZ=3.4500,0.7500,0.5350, IOR=3 /
&DEVC ID='P_SEAT_01_WT', QUANTITY='WALL TEMPERATURE', XYZ=8.1350,-0.7500,0.4500, IOR=1 /
&DEVC ID='P_SEAT_01_HF', QUANTITY='NET HEAT FLUX', XYZ=8.1350,-0.7500,0.4500, IOR=1 /
&DEVC ID='P_SEAT_02_WT', QUANTITY='WALL TEMPERATURE', XYZ=5.9500,0.8350,-1.0500, IOR=2 /
&DEVC ID='P_SEAT_02_HF', QUANTITY='NET HEAT FLUX', XYZ=5.9500,0.8350,-1.0500, IOR=2 /
&DEVC ID='P_SEAT_03_WT', QUANTITY='WALL TEMPERATURE', XYZ=7.5500,0.8350,1.4500, IOR=2 /
&DEVC ID='P_SEAT_03_HF', QUANTITY='NET HEAT FLUX', XYZ=7.5500,0.8350,1.4500, IOR=2 /
&DEVC ID='P_SEAT_04_WT', QUANTITY='WALL TEMPERATURE', XYZ=6.2000,-0.7500,0.0350, IOR=3 /
&DEVC ID='P_SEAT_04_HF', QUANTITY='NET HEAT FLUX', XYZ=6.2000,-0.7500,0.0350, IOR=3 /
&DEVC ID='P_SEAT_05_WT', QUANTITY='WALL TEMPERATURE', XYZ=3.9000,-0.7500,1.5350, IOR=3 /
&DEVC ID='P_SEAT_05_HF', QUANTITY='NET HEAT FLUX', XYZ=3.9000,-0.7500,1.5350, IOR=3 /
&DEVC ID='P_SEAT_06_WT', QUANTITY='WALL TEMPERATURE', XYZ=7.5500,-0.4500,1.5350, IOR=3 /
&DEVC ID='P_SEAT_06_HF', QUANTITY='NET HEAT FLUX', XYZ=7.5500,-0.4500,1.5350, IOR=3 /
&DEVC ID='P_SEAT_07_WT', QUANTITY='WALL TEMPERATURE', XYZ=8.1350,0.4500,0.4500, IOR=1 /
&DEVC ID='P_SEAT_07_HF', QUANTITY='NET HEAT FLUX', XYZ=8.1350,0.4500,0.4500, IOR=1 /
&DEVC ID='P_SEAT_08_WT', QUANTITY='WALL TEMPERATURE', XYZ=5.9500,-0.3650,-1.0500, IOR=2 /
&DEVC ID='P_SEAT_08_HF', QUANTITY='NET HEAT FLUX', XYZ=5.9500,-0.3650,-1.0500, IOR=2 /
&DEVC ID='P_SEAT_09_WT', QUANTITY='WALL TEMPERATURE', XYZ=6.2000,0.4500,0.0350, IOR=3 /
&DEVC ID='P_SEAT_09_HF', QUANTITY='NET HEAT FLUX', XYZ=6.2000,0.4500,0.0350, IOR=3 /
&DEVC ID='P_AL2024_00_WT', QUANTITY='WALL TEMPERATURE', XYZ=1.4667,0.7500,0.7350, IOR=3 /
&DEVC ID='P_AL2024_00_HF', QUANTITY='NET HEAT FLUX', XYZ=1.4667,0.7500,0.7350, IOR=3 /
&DEVC ID='P_AL2024_01_WT', QUANTITY='WALL TEMPERATURE', XYZ=9.9549,-0.7750,-1.8150, IOR=3 /
&DEVC ID='P_AL2024_01_HF', QUANTITY='NET HEAT FLUX', XYZ=9.9549,-0.7750,-1.8150, IOR=3 /
&DEVC ID='P_AL2024_02_WT', QUANTITY='WALL TEMPERATURE', XYZ=6.5000,-0.1500,2.2350, IOR=3 /
&DEVC ID='P_AL2024_02_HF', QUANTITY='NET HEAT FLUX', XYZ=6.5000,-0.1500,2.2350, IOR=3 /
&DEVC ID='P_AL2024_03_WT', QUANTITY='WALL TEMPERATURE', XYZ=4.7500,-0.8500,-1.9650, IOR=3 /
&DEVC ID='P_AL2024_03_HF', QUANTITY='NET HEAT FLUX', XYZ=4.7500,-0.8500,-1.9650, IOR=3 /
&DEVC ID='P_AL2024_04_WT', QUANTITY='WALL TEMPERATURE', XYZ=9.9549,0.1250,2.1850, IOR=3 /
&DEVC ID='P_AL2024_04_HF', QUANTITY='NET HEAT FLUX', XYZ=9.9549,0.1250,2.1850, IOR=3 /
&DEVC ID='P_AL2024_05_WT', QUANTITY='WALL TEMPERATURE', XYZ=7.3000,1.4500,-1.1650, IOR=3 /
&DEVC ID='P_AL2024_05_HF', QUANTITY='NET HEAT FLUX', XYZ=7.3000,1.4500,-1.1650, IOR=3 /
&DEVC ID='P_AL2024_06_WT', QUANTITY='WALL TEMPERATURE', XYZ=4.5000,1.4500,0.8350, IOR=3 /
&DEVC ID='P_AL2024_06_HF', QUANTITY='NET HEAT FLUX', XYZ=4.5000,1.4500,0.8350, IOR=3 /
&DEVC ID='P_AL2024_07_WT', QUANTITY='WALL TEMPERATURE', XYZ=3.5667,-1.2500,1.1350, IOR=3 /
&DEVC ID='P_AL2024_07_HF', QUANTITY='NET HEAT FLUX', XYZ=3.5667,-1.2500,1.1350, IOR=3 /
&DEVC ID='P_AL2024_08_WT', QUANTITY='WALL TEMPERATURE', XYZ=7.3000,-1.4650,-0.0500, IOR=2 /
&DEVC ID='P_AL2024_08_HF', QUANTITY='NET HEAT FLUX', XYZ=7.3000,-1.4650,-0.0500, IOR=2 /
&DEVC ID='P_AL2024_09_WT', QUANTITY='WALL TEMPERATURE', XYZ=2.9350,1.1500,-1.5500, IOR=1 /
&DEVC ID='P_AL2024_09_HF', QUANTITY='NET HEAT FLUX', XYZ=2.9350,1.1500,-1.5500, IOR=1 /
&DEVC ID='P_AL5052_00_WT', QUANTITY='WALL TEMPERATURE', XYZ=9.7569,-1.1000,0.0350, IOR=3 /
&DEVC ID='P_AL5052_00_HF', QUANTITY='NET HEAT FLUX', XYZ=9.7569,-1.1000,0.0350, IOR=3 /
&DEVC ID='P_AL5052_01_WT', QUANTITY='WALL TEMPERATURE', XYZ=9.0708,-1.1150,-0.0500, IOR=2 /
&DEVC ID='P_AL5052_01_HF', QUANTITY='NET HEAT FLUX', XYZ=9.0708,-1.1150,-0.0500, IOR=2 /
&DEVC ID='P_AL5052_02_WT', QUANTITY='WALL TEMPERATURE', XYZ=9.2292,-1.1250,0.4350, IOR=3 /
&DEVC ID='P_AL5052_02_HF', QUANTITY='NET HEAT FLUX', XYZ=9.2292,-1.1250,0.4350, IOR=3 /
&DEVC ID='P_AL5052_03_WT', QUANTITY='WALL TEMPERATURE', XYZ=9.3961,-1.0750,0.1500, IOR=1 /
&DEVC ID='P_AL5052_03_HF', QUANTITY='NET HEAT FLUX', XYZ=9.3961,-1.0750,0.1500, IOR=1 /
&DEVC ID='P_AL5052_04_WT', QUANTITY='WALL TEMPERATURE', XYZ=9.5810,-1.0150,-0.0500, IOR=2 /
&DEVC ID='P_AL5052_04_HF', QUANTITY='NET HEAT FLUX', XYZ=9.5810,-1.0150,-0.0500, IOR=2 /
&DEVC ID='P_AL5052_05_WT', QUANTITY='WALL TEMPERATURE', XYZ=9.3875,-1.1000,-0.0650, IOR=3 /
&DEVC ID='P_AL5052_05_HF', QUANTITY='NET HEAT FLUX', XYZ=9.3875,-1.1000,-0.0650, IOR=3 /
&DEVC ID='P_AL5052_06_WT', QUANTITY='WALL TEMPERATURE', XYZ=9.7569,-1.0150,-0.0500, IOR=2 /
&DEVC ID='P_AL5052_06_HF', QUANTITY='NET HEAT FLUX', XYZ=9.7569,-1.0150,-0.0500, IOR=2 /
&DEVC ID='P_AL5052_07_WT', QUANTITY='WALL TEMPERATURE', XYZ=9.2819,-1.0150,0.3250, IOR=2 /
&DEVC ID='P_AL5052_07_HF', QUANTITY='NET HEAT FLUX', XYZ=9.2819,-1.0150,0.3250, IOR=2 /
&DEVC ID='P_AL5052_08_WT', QUANTITY='WALL TEMPERATURE', XYZ=9.4931,-1.1000,0.0350, IOR=3 /
&DEVC ID='P_AL5052_08_HF', QUANTITY='NET HEAT FLUX', XYZ=9.4931,-1.1000,0.0350, IOR=3 /
&DEVC ID='P_AL5052_09_WT', QUANTITY='WALL TEMPERATURE', XYZ=9.3433,-1.1250,0.3750, IOR=1 /
&DEVC ID='P_AL5052_09_HF', QUANTITY='NET HEAT FLUX', XYZ=9.3433,-1.1250,0.3750, IOR=1 /
! ... 20 like lines cut
&DEVC ID='P_O2TANK_00_WT', QUANTITY='WALL TEMPERATURE', XYZ=3.5500,0.9500,0.5350, IOR=3 /
&DEVC ID='P_O2TANK_00_HF', QUANTITY='NET HEAT FLUX', XYZ=3.5500,0.9500,0.5350, IOR=3 /
&DEVC ID='P_O2TANK_01_WT', QUANTITY='WALL TEMPERATURE', XYZ=7.8350,-0.9500,0.3000, IOR=1 /
&DEVC ID='P_O2TANK_01_HF', QUANTITY='NET HEAT FLUX', XYZ=7.8350,-0.9500,0.3000, IOR=1 /
&DEVC ID='P_O2TANK_02_WT', QUANTITY='WALL TEMPERATURE', XYZ=6.1350,1.0500,-1.2000, IOR=1 /
&DEVC ID='P_O2TANK_02_HF', QUANTITY='NET HEAT FLUX', XYZ=6.1350,1.0500,-1.2000, IOR=1 /
&DEVC ID='P_O2TANK_03_WT', QUANTITY='WALL TEMPERATURE', XYZ=6.0000,-1.0500,-0.9650, IOR=3 /
&DEVC ID='P_O2TANK_03_HF', QUANTITY='NET HEAT FLUX', XYZ=6.0000,-1.0500,-0.9650, IOR=3 /
&DEVC ID='P_O2TANK_04_WT', QUANTITY='WALL TEMPERATURE', XYZ=7.7500,1.0350,0.3000, IOR=2 /
&DEVC ID='P_O2TANK_04_HF', QUANTITY='NET HEAT FLUX', XYZ=7.7500,1.0350,0.3000, IOR=2 /
&DEVC ID='P_O2TANK_05_WT', QUANTITY='WALL TEMPERATURE', XYZ=3.6350,-0.9500,0.3000, IOR=1 /
&DEVC ID='P_O2TANK_05_HF', QUANTITY='NET HEAT FLUX', XYZ=3.6350,-0.9500,0.3000, IOR=1 /
&DEVC ID='P_O2TANK_06_WT', QUANTITY='WALL TEMPERATURE', XYZ=3.5500,1.0350,0.1500, IOR=2 /
&DEVC ID='P_O2TANK_06_HF', QUANTITY='NET HEAT FLUX', XYZ=3.5500,1.0350,0.1500, IOR=2 /
&DEVC ID='P_O2TANK_07_WT', QUANTITY='WALL TEMPERATURE', XYZ=3.6350,0.9500,0.3000, IOR=1 /
&DEVC ID='P_O2TANK_07_HF', QUANTITY='NET HEAT FLUX', XYZ=3.6350,0.9500,0.3000, IOR=1 /
&DEVC ID='P_O2TANK_08_WT', QUANTITY='WALL TEMPERATURE', XYZ=6.1350,-1.0500,-1.2000, IOR=1 /
&DEVC ID='P_O2TANK_08_HF', QUANTITY='NET HEAT FLUX', XYZ=6.1350,-1.0500,-1.2000, IOR=1 /
&DEVC ID='P_O2TANK_09_WT', QUANTITY='WALL TEMPERATURE', XYZ=6.0000,1.0500,-0.9650, IOR=3 /
&DEVC ID='P_O2TANK_09_HF', QUANTITY='NET HEAT FLUX', XYZ=6.0000,1.0500,-0.9650, IOR=3 /
&DEVC ID='P_H1_00_WT', QUANTITY='WALL TEMPERATURE', XYZ=0.6500,-0.0500,0.5350, IOR=3 /
&DEVC ID='P_H1_00_HF', QUANTITY='NET HEAT FLUX', XYZ=0.6500,-0.0500,0.5350, IOR=3 /
&DEVC ID='P_H1_03_WT', QUANTITY='WALL TEMPERATURE', XYZ=7.8500,0.0000,-0.9650, IOR=3 /
&DEVC ID='P_H1_03_HF', QUANTITY='NET HEAT FLUX', XYZ=7.8500,0.0000,-0.9650, IOR=3 /
&DEVC ID='P_H1_04_WT', QUANTITY='WALL TEMPERATURE', XYZ=0.9500,-0.0500,0.6350, IOR=3 /
&DEVC ID='P_H1_04_HF', QUANTITY='NET HEAT FLUX', XYZ=0.9500,-0.0500,0.6350, IOR=3 /
&DEVC ID='P_H1_05_WT', QUANTITY='WALL TEMPERATURE', XYZ=8.4375,0.9350,-1.2000, IOR=2 /
&DEVC ID='P_H1_05_HF', QUANTITY='NET HEAT FLUX', XYZ=8.4375,0.9350,-1.2000, IOR=2 /
&DEVC ID='P_H1_06_WT', QUANTITY='WALL TEMPERATURE', XYZ=0.8000,-0.0500,0.6350, IOR=3 /
&DEVC ID='P_H1_06_HF', QUANTITY='NET HEAT FLUX', XYZ=0.8000,-0.0500,0.6350, IOR=3 /
&DEVC ID='P_H1_07_WT', QUANTITY='WALL TEMPERATURE', XYZ=0.8000,0.2350,0.5000, IOR=2 /
&DEVC ID='P_H1_07_HF', QUANTITY='NET HEAT FLUX', XYZ=0.8000,0.2350,0.5000, IOR=2 /
&DEVC ID='P_H1_09_WT', QUANTITY='WALL TEMPERATURE', XYZ=1.0350,-0.0500,0.5500, IOR=1 /
&DEVC ID='P_H1_09_HF', QUANTITY='NET HEAT FLUX', XYZ=1.0350,-0.0500,0.5500, IOR=1 /
&DEVC ID='P_H2_00_WT', QUANTITY='WALL TEMPERATURE', XYZ=0.7500,-0.4500,0.3350, IOR=3 /
&DEVC ID='P_H2_00_HF', QUANTITY='NET HEAT FLUX', XYZ=0.7500,-0.4500,0.3350, IOR=3 /
&DEVC ID='P_H2_01_WT', QUANTITY='WALL TEMPERATURE', XYZ=3.6350,1.2500,-0.5000, IOR=1 /
&DEVC ID='P_H2_01_HF', QUANTITY='NET HEAT FLUX', XYZ=3.6350,1.2500,-0.5000, IOR=1 /
&DEVC ID='P_H2_02_WT', QUANTITY='WALL TEMPERATURE', XYZ=3.4000,-1.3500,-0.3650, IOR=3 /
&DEVC ID='P_H2_02_HF', QUANTITY='NET HEAT FLUX', XYZ=3.4000,-1.3500,-0.3650, IOR=3 /
&DEVC ID='P_H2_03_WT', QUANTITY='WALL TEMPERATURE', XYZ=1.0000,0.5500,0.0350, IOR=3 /
&DEVC ID='P_H2_03_HF', QUANTITY='NET HEAT FLUX', XYZ=1.0000,0.5500,0.0350, IOR=3 /
&DEVC ID='P_H2_04_WT', QUANTITY='WALL TEMPERATURE', XYZ=0.2500,0.2500,0.1350, IOR=3 /
&DEVC ID='P_H2_04_HF', QUANTITY='NET HEAT FLUX', XYZ=0.2500,0.2500,0.1350, IOR=3 /
&DEVC ID='P_H2_05_WT', QUANTITY='WALL TEMPERATURE', XYZ=2.5000,0.8500,-0.3650, IOR=3 /
&DEVC ID='P_H2_05_HF', QUANTITY='NET HEAT FLUX', XYZ=2.5000,0.8500,-0.3650, IOR=3 /
&DEVC ID='P_H2_06_WT', QUANTITY='WALL TEMPERATURE', XYZ=1.2000,0.0000,0.7350, IOR=3 /
&DEVC ID='P_H2_06_HF', QUANTITY='NET HEAT FLUX', XYZ=1.2000,0.0000,0.7350, IOR=3 /
&DEVC ID='P_H2_07_WT', QUANTITY='WALL TEMPERATURE', XYZ=2.5000,-0.7650,-0.5000, IOR=2 /
&DEVC ID='P_H2_07_HF', QUANTITY='NET HEAT FLUX', XYZ=2.5000,-0.7650,-0.5000, IOR=2 /
&DEVC ID='P_H2_08_WT', QUANTITY='WALL TEMPERATURE', XYZ=0.2500,-0.2500,0.1350, IOR=3 /
&DEVC ID='P_H2_08_HF', QUANTITY='NET HEAT FLUX', XYZ=0.2500,-0.2500,0.1350, IOR=3 /
&DEVC ID='P_H2_09_WT', QUANTITY='WALL TEMPERATURE', XYZ=1.1500,0.3500,0.4350, IOR=3 /
&DEVC ID='P_H2_09_HF', QUANTITY='NET HEAT FLUX', XYZ=1.1500,0.3500,0.4350, IOR=3 /
&DEVC ID='P_H3_00_WT', QUANTITY='WALL TEMPERATURE', XYZ=2.0625,0.5500,0.8350, IOR=3 /
&DEVC ID='P_H3_00_HF', QUANTITY='NET HEAT FLUX', XYZ=2.0625,0.5500,0.8350, IOR=3 /
&DEVC ID='P_H3_01_WT', QUANTITY='WALL TEMPERATURE', XYZ=9.1850,0.0000,0.9500, IOR=1 /
&DEVC ID='P_H3_01_HF', QUANTITY='NET HEAT FLUX', XYZ=9.1850,0.0000,0.9500, IOR=1 /
&DEVC ID='P_H3_02_WT', QUANTITY='WALL TEMPERATURE', XYZ=5.6000,-1.1500,-0.7650, IOR=3 /
&DEVC ID='P_H3_02_HF', QUANTITY='NET HEAT FLUX', XYZ=5.6000,-1.1500,-0.7650, IOR=3 /
! ... 94 like lines cut
&DEVC ID='HRR_total', QUANTITY='HRR', XB=-0.250,10.050,-1.850,1.650,-2.150,2.550 /
&SLCF PBY=0.0, QUANTITY='TEMPERATURE' /
&SLCF PBY=0.0, QUANTITY='HRRPUV' /
&SLCF PBZ=0.8, QUANTITY='TEMPERATURE' /
&BNDF QUANTITY='WALL TEMPERATURE' /
&BNDF QUANTITY='NET HEAT FLUX' /
&BNDF QUANTITY='BURNING RATE' /
&TAIL /
